version 2
run Default-0-20250327-21:44:03-2211
attr configname Default
attr datetime 20250327-21:44:03
attr experiment Default
attr inifile omnetpp.ini
attr iterationvars ""
attr iterationvarsf ""
attr measurement ""
attr network RSUExampleScenario
attr processid 2211
attr repetition 0
attr replication #0
attr resultdir results
attr runnumber 0
attr seedset 0
param *.playgroundSizeX 2500m
param *.playgroundSizeY 2500m
param *.playgroundSizeZ 50m
param *.annotations.draw true
param *.obstacles.obstacles "xmldoc(\"config.xml\", \"//AnalogueModel[@type='SimpleObstacleShadowing']/obstacles\")"
param *.manager.updateInterval 1s
param *.manager.host "\"localhost\""
param *.manager.port 9999
param *.manager.autoShutdown true
param *.manager.launchConfig "xmldoc(\"erlangen.launchd.xml\")"
param *.rsu[0].mobility.x 1600
param *.rsu[0].mobility.y 755
param *.rsu[0].mobility.z 3
param *.rsu[*].applType "\"TraCIDemoRSU11p\""
param *.rsu[*].appl.headerLength "80 bit"
param *.rsu[*].appl.sendBeacons false
param *.rsu[*].appl.dataOnSch false
param *.rsu[*].appl.beaconInterval 1s
param *.rsu[*].appl.beaconUserPriority 7
param *.rsu[*].appl.dataUserPriority 5
param *.rsu[*].nic.phy80211p.antennaOffsetZ "0 m"
param *.connectionManager.sendDirect true
param *.connectionManager.maxInterfDist 2600m
param *.connectionManager.drawMaxIntfDist false
param *.**.nic.mac1609_4.useServiceChannel false
param *.**.nic.mac1609_4.txPower 20mW
param *.**.nic.mac1609_4.bitrate 6Mbps
param *.**.nic.phy80211p.minPowerLevel -110dBm
param *.**.nic.phy80211p.useNoiseFloor true
param *.**.nic.phy80211p.noiseFloor -98dBm
param *.**.nic.phy80211p.decider "xmldoc(\"config.xml\")"
param *.**.nic.phy80211p.analogueModels "xmldoc(\"config.xml\")"
param *.**.nic.phy80211p.usePropagationDelay true
param *.**.nic.phy80211p.antenna "xmldoc(\"antenna.xml\", \"/root/Antenna[@id='monopole']\")"
param *.node[*].nic.phy80211p.antennaOffsetY "0 m"
param *.node[*].nic.phy80211p.antennaOffsetZ "1.895 m"
param *.node[*].applType "\"TraCIDemo11p\""
param *.node[*].appl.headerLength "80 bit"
param *.node[*].appl.sendBeacons false
param *.node[*].appl.dataOnSch false
param *.node[*].appl.beaconInterval 1s
param *.node[*].veinsmobility.x 0
param *.node[*].veinsmobility.y 0
param *.node[*].veinsmobility.z 0
param *.node[*].veinsmobility.setHostSpeed false

vector 0 RSUExampleScenario.node[0].veinsmobility posx ETV
vector 1 RSUExampleScenario.node[0].veinsmobility posy ETV
vector 2 RSUExampleScenario.node[0].veinsmobility speed ETV
vector 3 RSUExampleScenario.node[1].veinsmobility posx ETV
vector 4 RSUExampleScenario.node[1].veinsmobility posy ETV
vector 5 RSUExampleScenario.node[2].veinsmobility posx ETV
vector 6 RSUExampleScenario.node[2].veinsmobility posy ETV
vector 7 RSUExampleScenario.node[0].veinsmobility acceleration ETV
vector 8 RSUExampleScenario.node[0].veinsmobility co2emission ETV
vector 9 RSUExampleScenario.node[1].veinsmobility speed ETV
vector 10 RSUExampleScenario.node[2].veinsmobility speed ETV
vector 11 RSUExampleScenario.node[1].veinsmobility acceleration ETV
vector 12 RSUExampleScenario.node[1].veinsmobility co2emission ETV
vector 13 RSUExampleScenario.node[2].veinsmobility acceleration ETV
vector 14 RSUExampleScenario.node[2].veinsmobility co2emission ETV
vector 15 RSUExampleScenario.node[3].veinsmobility posx ETV
vector 16 RSUExampleScenario.node[3].veinsmobility posy ETV
vector 17 RSUExampleScenario.node[3].veinsmobility speed ETV
vector 18 RSUExampleScenario.node[3].veinsmobility acceleration ETV
vector 19 RSUExampleScenario.node[3].veinsmobility co2emission ETV
vector 20 RSUExampleScenario.node[4].veinsmobility posx ETV
vector 21 RSUExampleScenario.node[4].veinsmobility posy ETV
vector 22 RSUExampleScenario.node[4].veinsmobility speed ETV
vector 23 RSUExampleScenario.node[5].veinsmobility posx ETV
vector 24 RSUExampleScenario.node[5].veinsmobility posy ETV
vector 25 RSUExampleScenario.node[4].veinsmobility acceleration ETV
vector 26 RSUExampleScenario.node[4].veinsmobility co2emission ETV
vector 27 RSUExampleScenario.node[5].veinsmobility speed ETV
vector 28 RSUExampleScenario.node[5].veinsmobility acceleration ETV
vector 29 RSUExampleScenario.node[5].veinsmobility co2emission ETV
vector 30 RSUExampleScenario.node[6].veinsmobility posx ETV
vector 31 RSUExampleScenario.node[6].veinsmobility posy ETV
vector 32 RSUExampleScenario.node[6].veinsmobility speed ETV
vector 33 RSUExampleScenario.node[6].veinsmobility acceleration ETV
vector 34 RSUExampleScenario.node[6].veinsmobility co2emission ETV
vector 35 RSUExampleScenario.node[7].veinsmobility posx ETV
vector 36 RSUExampleScenario.node[7].veinsmobility posy ETV
vector 37 RSUExampleScenario.node[7].veinsmobility speed ETV
vector 38 RSUExampleScenario.node[7].veinsmobility acceleration ETV
vector 39 RSUExampleScenario.node[7].veinsmobility co2emission ETV
vector 40 RSUExampleScenario.node[8].veinsmobility posx ETV
vector 41 RSUExampleScenario.node[8].veinsmobility posy ETV
vector 42 RSUExampleScenario.node[9].veinsmobility posx ETV
vector 43 RSUExampleScenario.node[9].veinsmobility posy ETV
vector 44 RSUExampleScenario.node[8].veinsmobility speed ETV
vector 45 RSUExampleScenario.node[8].veinsmobility acceleration ETV
vector 46 RSUExampleScenario.node[8].veinsmobility co2emission ETV
vector 47 RSUExampleScenario.node[9].veinsmobility speed ETV
vector 48 RSUExampleScenario.node[9].veinsmobility acceleration ETV
vector 49 RSUExampleScenario.node[9].veinsmobility co2emission ETV
vector 50 RSUExampleScenario.node[10].veinsmobility posx ETV
vector 51 RSUExampleScenario.node[10].veinsmobility posy ETV
8	12	11	3.2241087379109
8	13	12	3.4601227135953
8	14	13	3.8482735654459
8	15	14	4.9989159555905
8	16	15	6.8241751695152
8	17	16	8.3447494493448
8	18	17	10.116266925327
8	19	18	10.215004263606
8	20	19	12.922343279949
8	21	20	16.460409342934
8	22	21	14.900499349523
8	23	22	20.18351739476
8	24	23	17.595868129446
8	25	24	17.46603272591
8	26	25	4.8835150190053
8	27	26	6.1102259843361
8	29	27	6.3269594405719
8	53	28	11.498255792227
8	55	29	1.286447675562
8	79	30	7.3760500360186
8	81	31	4.0291173218549
8	105	32	0.35699871899312
8	107	33	6.5846695884268
8	131	34	9.8804289261865
8	133	35	-0.38318002808388
8	157	36	0.973
8	159	37	0.973
8	185	38	0.973
8	187	39	0.973
8	213	40	0.973
8	215	41	0.973
8	243	42	0.973
8	245	43	0.973
8	273	44	1.1122181806855
8	275	45	1.1112131703902
8	303	46	2.0003499711602
8	305	47	2.4992130098879
8	333	48	4.0317928503759
8	335	49	6.1973685576807
8	366	50	6.1754521592379
8	368	51	1.9608262036111
8	399	52	0.973
8	401	53	1.3119714360037
8	432	54	4.7904125536981
8	434	55	6.1601260532019
8	465	56	8.8020022591835
8	467	57	7.0381918674051
8	500	58	7.5460659001888
8	502	59	12.643216991214
8	537	60	9.6636117213386
8	539	61	14.316293678345
8	586	62	17.005263588059
8	588	63	12.703434079112
8	635	64	14.639302069175
8	637	65	18.902083816742
8	684	66	11.111114108036
8	686	67	14.084129601315
8	734	68	0.973
7	12	11	1.9749580422416
7	13	12	1.5410411437973
7	14	13	1.410603406583
7	15	14	1.6439835200086
7	16	15	1.9916550267488
7	17	16	2.1000355886295
7	18	17	2.2179987480631
7	19	18	1.9318736586953
7	20	19	2.2281300266739
7	21	20	2.5623109196546
7	22	21	2.0045285689412
7	23	22	2.5561188762542
7	24	23	1.9275127517292
7	25	24	1.7301737446804
7	26	25	-0.017173429375699
7	27	26	0.14658759310841
7	29	27	0.16864408105612
7	53	28	0.82274916847237
7	55	29	-0.53169154280331
7	79	30	0.28343019275926
7	81	31	-0.16243724417873
7	105	32	-0.64792796068359
7	107	33	0.20555179431103
7	131	34	0.62050456423312
7	133	35	-0.75173915091436
7	157	36	-2.817341037783
7	159	37	-4.4383308561441
7	185	38	-4.5
7	187	39	-4.4414984653587
7	213	40	-3.7449541741749
7	215	41	-4.2020478378166
7	243	42	-3.1953638550593
7	245	43	-2.5491298314811
7	273	44	-0.052843266900867
7	275	45	-0.032458944482177
7	303	46	1.8082537224516
7	305	47	1.5147052048706
7	333	48	2.0376957817236
7	335	49	2.4637650594814
7	366	50	1.9147571918995
7	368	51	0.11937049403124
7	399	52	-2.974251311351
7	401	53	-0.095094602974132
7	432	54	1.5889868666884
7	434	55	1.810456270352
7	465	56	2.2911964192521
7	467	57	1.4827357839793
7	500	58	1.4391225100961
7	502	59	2.3671004785923
7	537	60	1.4965369990095
7	539	61	2.1753469938878
7	586	62	2.3510229789186
7	588	63	1.4578180810902
7	635	64	1.6103753659641
7	637	65	2.0318194778869
7	684	66	0.85370805345861
7	686	67	1.172244805214
7	734	68	-0.97571109118871
2	11	10	2.0465621652314
2	12	11	4.0215202074731
2	13	12	5.5625613512704
2	14	13	6.9731647578534
2	15	14	8.617148277862
2	16	15	10.608803304611
2	17	16	12.70883889324
2	18	17	14.926837641303
2	19	18	16.858711299999
2	20	19	19.086841326673
2	21	20	21.649152246327
2	22	21	23.653680815268
2	23	22	26.209799691522
2	24	23	28.137312443252
2	25	24	29.867486187932
2	26	25	29.850312758556
2	27	26	29.996900351665
2	29	27	30.165544432721
2	53	28	30.988293601193
2	55	29	30.45660205839
2	79	30	30.740032251149
2	81	31	30.577595006971
2	105	32	29.929667046287
2	107	33	30.135218840598
2	131	34	30.755723404831
2	133	35	30.003984253917
2	157	36	27.186643216134
2	159	37	22.74831235999
2	185	38	18.24831235999
2	187	39	13.806813894631
2	213	40	10.061859720456
2	215	41	5.8598118826392
2	243	42	2.66444802758
2	245	43	0.11531819609888
2	273	44	0.062474929198009
2	275	45	0.030015984715831
2	303	46	1.8382697071675
2	305	47	3.352974912038
2	333	48	5.3906706937616
2	335	49	7.854435753243
2	366	50	9.7691929451425
2	368	51	9.8885634391737
2	399	52	6.9143121278227
2	401	53	6.8192175248486
2	432	54	8.4082043915369
2	434	55	10.218660661889
2	465	56	12.509857081141
2	467	57	13.99259286512
2	500	58	15.431715375216
2	502	59	17.798815853809
2	537	60	19.295352852818
2	539	61	21.470699846706
2	586	62	23.821722825625
2	588	63	25.279540906715
2	635	64	26.889916272679
2	637	65	28.921735750566
2	684	66	29.775443804025
2	686	67	30.947688609239
2	734	68	29.97197751805
1	10	9	500.97642705232
1	11	10	501.376279975
1	12	11	502.16199596053
1	13	12	503.24879725672
1	14	13	504.61119921848
1	15	14	506.2947991514
1	16	15	508.36752436816
1	17	16	510.85055003027
1	18	17	513.7672875894
1	19	18	517.39729124267
1	20	19	521.61812119459
1	21	20	526.55131428505
1	22	21	532.13370708313
1	23	22	535.85525909005
1	24	23	543.47877616323
1	25	24	551.51177289414
1	26	25	558.71119812957
1	27	26	565.75988330937
1	29	27	572.13654408404
1	53	28	579.61311570786
1	55	29	586.94755459095
1	79	30	594.28659215137
1	81	31	601.63370872943
1	105	32	608.82514261694
1	107	33	616.06596603281
1	131	34	623.45502660995
1	133	35	630.66882679042
1	157	36	637.20437363636
1	159	37	642.66943940602
1	185	38	647.05448586314
1	187	39	650.37252529696
1	213	40	652.787891055
1	215	41	654.22168578067
1	243	42	654.88493893775
1	245	43	654.9136447548
1	273	44	654.92919645392
1	275	45	654.93666824411
1	303	46	654.79963807126
1	305	47	653.00880800555
1	333	48	649.77030440822
1	335	49	645.09150920623
1	366	50	647.90165343139
1	368	51	657.26664606676
1	399	52	663.65511212947
1	401	53	665.84698969883
1	432	54	667.75223106585
1	434	55	670.06709826146
1	465	56	672.90099780438
1	467	57	676.07078641727
1	500	58	679.60819496893
1	502	59	683.7124486807
1	537	60	688.14330143687
1	539	61	693.13344196302
1	586	62	698.42223044801
1	588	63	704.13607869625
1	635	64	710.38241299344
1	637	65	717.10066355406
1	684	66	723.80908857488
1	686	67	731.2004914707
1	734	68	738.27432986676
0	10	9	582.62165886857
0	11	10	584.62875804578
0	12	11	588.57273298908
0	13	12	594.02803383507
0	14	13	600.86673802195
0	15	14	609.31772549366
0	16	15	619.72196375511
0	17	16	632.18574351188
0	18	17	646.8239345766
0	19	18	663.15746136473
0	20	19	681.77876997611
0	21	20	702.78269930602
0	22	21	725.76622105526
0	23	22	751.76939486966
0	24	23	778.85684010455
0	25	24	807.64974964306
0	26	25	836.64759522018
0	27	26	865.81450526128
0	29	27	895.27757301078
0	53	28	925.34957230605
0	55	29	954.95159335061
0	79	30	984.76242675845
0	81	31	1014.4421082613
0	105	32	1043.4928882594
0	107	33	1072.743184007
0	131	34	1102.5930411619
0	133	35	1131.7170821515
0	157	36	1158.109430336
0	159	37	1180.191808564
0	185	38	1197.9056567002
0	187	39	1211.3080216663
0	213	40	1221.072267364
0	215	41	1226.8766579044
0	243	42	1229.5639767305
0	245	43	1229.6802847824
0	273	44	1229.7432959771
0	275	45	1229.7735696097
0	303	46	1231.5211771226
0	305	47	1234.3439932747
0	333	48	1238.6484540766
0	335	49	1245.459709226
0	366	50	1256.9353067654
0	368	51	1261.783324387
0	399	52	1264.1617047073
0	401	53	1270.5196438445
0	432	54	1278.7084409762
0	434	55	1288.6605938044
0	465	56	1300.8441874915
0	467	57	1314.471846464
0	500	58	1329.4912822867
0	502	59	1346.8075829024
0	537	60	1365.5954262786
0	539	61	1386.48042665
0	586	62	1409.7070244516
0	588	63	1434.3301606881
0	635	64	1460.4890270138
0	637	65	1488.6176729607
0	684	66	1517.6201583302
0	686	67	1547.6742658089
0	734	68	1576.796016225
vector 52 RSUExampleScenario.node[10].veinsmobility speed ETV
vector 53 RSUExampleScenario.node[10].veinsmobility acceleration ETV
vector 54 RSUExampleScenario.node[10].veinsmobility co2emission ETV
14	14	13	3.6201031488954
14	15	14	4.0733996277683
14	16	15	5.9100952127211
14	17	16	7.9341082456114
14	18	17	9.3835260314015
14	19	18	9.696298894164
14	20	19	10.995220875501
14	21	20	9.2516735243955
14	22	21	15.840492040856
14	23	22	12.373151409332
14	24	23	18.953470489886
14	25	24	12.925424153507
14	26	25	16.490849086034
14	27	26	-0.63440423219731
14	29	27	3.2127310751827
14	53	28	8.669138780857
14	55	29	8.0890916235586
14	79	30	0.91590902885297
14	81	31	7.3914889428649
14	105	32	-0.52601675316733
14	107	33	7.050366208849
14	131	34	2.8181215470007
14	133	35	8.3034475277984
14	157	36	3.7894939929271
14	159	37	0.41473019821786
14	185	38	1.3796367797146
14	187	39	0.973
14	213	40	0.973
14	215	41	0.973
14	243	42	0.973
14	245	43	0.973
14	273	44	0.973
14	275	45	0.973
14	303	46	0.973
14	305	47	1.4122199631916
14	333	48	2.0652224366318
14	335	49	3.0451106227584
14	366	50	4.0802489103903
14	368	51	6.8922543959221
14	399	52	0.973
14	401	53	1.8599994805515
14	432	54	0.973
14	434	55	0.973
14	465	56	1.6250267776728
14	467	57	4.5247194644244
14	500	58	4.695726317842
14	502	59	5.20759478433
14	537	60	8.1061675184756
14	539	61	8.4527258002232
14	586	62	8.3784508025003
14	588	63	12.227982271498
14	635	64	8.9818854922824
14	637	65	10.337071846878
14	684	66	14.665346725137
14	686	67	13.212292111632
14	734	68	17.494129211021
14	775	69	13.594650503857
14	820	70	1.8629381473472
14	856	71	7.9466860126803
14	901	72	1.0226632121902
13	14	13	2.3779299757211
13	15	14	1.8703885182505
13	16	15	2.2255486362148
13	17	16	2.4375427759252
13	18	17	2.3864785335958
13	19	18	2.0831299236277
13	20	19	2.0838115428807
13	21	20	1.4834439461352
13	22	21	2.5224465359235
13	23	22	1.652940650261
13	24	23	2.4860693038907
13	25	24	1.3689486144111
13	26	25	1.740741308282
13	27	26	-0.7546126546571
13	29	27	-0.17101506332401
13	53	28	0.61572450683452
13	55	29	0.50098124354845
13	79	30	-0.53011562570464
13	81	31	0.40631631064462
13	105	32	-0.73934555784799
13	107	33	0.37565135222394
13	131	34	-0.24245672987308
13	133	35	0.54308155456092
13	157	36	-0.11297000271734
13	159	37	-0.59782008463517
13	185	38	-0.4431166631289
13	187	39	-4.5
13	213	40	-4.5
13	215	41	-3.6907247444731
13	243	42	-4.406692593731
13	245	43	-3.1570517760701
13	273	44	-4.4005902741388
13	275	45	-1.8966948375071
13	303	46	-0.3691866528973
13	305	47	0.87007855111944
13	333	48	1.3620386655908
13	335	49	1.6929525283631
13	366	50	1.823176932591
13	368	51	2.558692760556
13	399	52	-0.31672857884265
13	401	53	0.14161028907948
13	432	54	-1.4799251854252
13	434	55	-0.5111792253796
13	465	56	0.10957999005914
13	467	57	1.5284379143734
13	500	58	1.3445260382257
13	502	59	1.3356185556389
13	537	60	2.0105159847299
13	539	61	1.8082447982393
13	586	62	1.567772246385
13	588	63	2.1872653045459
13	635	64	1.3142850321019
13	637	65	1.4444757229416
13	684	66	2.0277093732497
13	686	67	1.5972831639228
13	734	68	2.0634341837373
13	775	69	1.3389730606472
13	820	70	-0.38244013558142
13	856	71	0.49888279526494
13	901	72	-0.50795226907357
10	13	12	1.652282136376
10	14	13	4.0302121120971
10	15	14	5.9006006303476
10	16	15	8.1261492665624
10	17	16	10.563692042488
10	18	17	12.950170576083
10	19	18	15.033300499711
10	20	19	17.117112042592
10	21	20	18.600555988727
10	22	21	21.123002524651
10	23	22	22.775943174912
10	24	23	25.262012478802
10	25	24	26.630961093213
10	26	25	28.371702401495
10	27	26	27.617089746838
10	29	27	27.446074683514
10	53	28	28.061799190349
10	55	29	28.562780433897
10	79	30	28.032664808193
10	81	31	28.438981118837
10	105	32	27.699635560989
10	107	33	28.075286913213
10	131	34	27.83283018334
10	133	35	28.375911737901
10	157	36	28.262941735184
10	159	37	27.665121650548
10	185	38	27.22200498742
10	187	39	22.72200498742
10	213	40	18.22200498742
10	215	41	14.531280242946
10	243	42	10.124587649215
10	245	43	6.9675358731454
10	273	44	2.5669455990066
10	275	45	0.67025076149946
10	303	46	0.30106410860216
10	305	47	1.1711426597216
10	333	48	2.5331813253124
10	335	49	4.2261338536755
10	366	50	6.0493107862665
10	368	51	8.6080035468225
10	399	52	8.2912749679799
10	401	53	8.4328852570594
10	432	54	6.9529600716342
10	434	55	6.4417808462546
10	465	56	6.5513608363137
10	467	57	8.0797987506871
10	500	58	9.4243247889128
10	502	59	10.759943344552
10	537	60	12.770459329282
10	539	61	14.578704127521
10	586	62	16.146476373906
10	588	63	18.333741678452
10	635	64	19.648026710554
10	637	65	21.092502433495
10	684	66	23.120211806745
10	686	67	24.717494970668
10	734	68	26.780929154405
10	775	69	28.119902215052
10	820	70	27.737462079471
10	856	71	28.236344874736
10	901	72	27.728392605662
6	12	11	497.83642705232
6	13	12	498.15924638933
6	14	13	498.94666058052
6	15	14	500.09950726542
6	16	15	501.6871768655
6	17	16	503.75108834069
6	18	17	506.28126486895
6	19	18	509.21843885004
6	20	19	512.74024166773
6	21	20	516.85353534979
6	22	21	521.56289977736
6	23	22	526.93553824348
6	24	23	533.20314113305
6	25	24	540.41852771195
6	26	25	548.10555034744
6	27	26	555.15995193864
6	29	27	561.60779860717
6	53	28	567.91588829398
6	55	29	574.28005764844
6	79	30	581.04352223097
6	81	31	587.8766683718
6	105	32	594.49578193659
6	107	33	601.24164948657
6	131	34	607.92926007229
6	133	35	614.74736108709
6	157	36	621.53844969402
6	159	37	628.19084720463
6	185	38	634.73371203359
6	187	39	640.1924577071
6	213	40	644.5703727647
6	215	41	648.06251521248
6	243	42	650.49564579044
6	245	43	652.16842968323
6	273	44	652.78427862737
6	275	45	652.94508188862
6	303	46	653.01731170661
6	305	47	653.29828648484
6	333	48	653.92316497394
6	335	49	654.97516395898
6	366	50	652.40994917922
6	368	51	647.17186487566
6	399	52	645.33617050201
6	401	53	650.47788551514
6	432	54	657.70686741512
6	434	55	663.59984798893
6	465	56	665.76864411303
6	467	57	667.59958841286
6	500	58	669.73451206054
6	502	59	672.17199782302
6	537	60	675.06493246019
6	539	61	678.3776574831
6	586	62	682.10900202187
6	588	63	686.33513593829
6	635	64	690.8541743454
6	637	65	695.74478440739
6	684	66	700.73971635309
6	686	67	706.4824642322
6	734	68	712.69877112945
6	775	69	719.09952040386
6	820	70	725.50573299377
6	856	71	732.2658234348
6	901	72	738.78425070988
5	12	11	583.24165886857
5	13	12	584.86208075107
5	14	13	588.81457999669
5	15	14	594.60140185408
5	16	15	602.57085803964
5	17	16	612.93085490026
5	18	17	625.63131284365
5	19	18	640.37473260212
5	20	19	657.08539186537
5	21	20	675.22723495573
5	22	21	695.79433846455
5	23	22	717.92758698424
5	24	23	742.34604089446
5	25	24	767.9833401788
5	26	25	795.29642974878
5	27	26	822.04063758127
5	29	27	848.72843195527
5	53	28	876.0957300344
5	55	29	903.89913669547
5	79	30	931.10290232405
5	81	31	958.79510676883
5	105	32	985.60747748457
5	107	33	1012.8583313694
5	131	34	1039.8738482854
5	133	35	1067.4164991231
5	157	36	1094.8462268798
5	159	37	1121.6987485251
5	185	38	1148.1263695119
5	187	39	1170.1832104895
5	213	40	1187.8717221957
5	215	41	1201.9773314063
5	243	42	1211.8053351617
5	245	43	1218.5670120817
5	273	44	1221.0576578116
5	275	45	1221.7079860451
5	303	46	1222.0001013267
5	305	47	1223.136432952
5	333	48	1225.6671339462
5	335	49	1229.9295436269
5	366	50	1235.1598601774
5	368	51	1241.982884914
5	399	52	1250.9886558567
5	401	53	1259.8630353655
5	432	54	1261.8219733705
5	434	55	1264.1072414963
5	465	56	1270.1832609624
5	467	57	1278.0521946855
5	500	58	1287.2307283216
5	502	59	1297.7100469066
5	537	60	1310.1474462035
5	539	61	1324.3435338043
5	586	62	1340.0477071608
5	588	63	1357.8927061087
5	635	64	1377.0245682355
5	637	65	1397.5360661592
5	684	66	1420.1087503093
5	686	67	1444.1550152753
5	734	68	1470.2037753041
5	775	69	1497.5861962831
5	820	70	1524.5667339077
5	856	71	1551.9837912113
5	901	72	1578.9307872957
12	14	13	2.3416903386739
12	15	14	4.0544140343296
12	16	15	5.7545666779888
12	17	16	5.543073653423
12	18	17	7.4768293151306
12	19	18	9.9478894345938
12	20	19	8.8177122106541
12	21	20	11.97707401817
12	22	21	15.349101624371
12	23	22	16.087956241223
12	24	23	16.237313085893
12	25	24	17.486535513201
12	26	25	11.556644146776
12	27	26	10.683068877959
12	29	27	2.3523140442174
12	53	28	6.8313316598755
12	55	29	0.973
12	79	30	0.973
12	81	31	0.973
12	105	32	17.284022568148
12	107	33	2.8173361000819
12	131	34	9.0628810151977
12	133	35	0.78674604897483
12	157	36	15.534793359009
12	159	37	0.973
12	185	38	4.8460559620387
12	187	39	2.021502336578
12	213	40	0.973
12	215	41	0.973
12	243	42	0.973
12	245	43	0.973
12	273	44	0.973
12	275	45	0.973
12	303	46	0.973
12	305	47	0.973
12	333	48	1.303078357199
12	335	49	1.5132112594057
12	366	50	2.8990809137135
12	368	51	5.29333382614
12	399	52	6.3831339440321
12	401	53	0.973
12	432	54	2.6173411365444
12	434	55	0.973
12	465	56	0.973
12	467	57	1.8251406047953
12	500	58	0.973
12	502	59	4.6652774078252
12	537	60	5.4308662387548
12	539	61	6.8002810870765
12	586	62	7.5886432297847
12	588	63	8.0919408705039
12	635	64	13.176493587811
12	637	65	13.78960392679
12	684	66	14.809898934098
12	686	67	18.454701867058
12	734	68	11.011604671939
12	775	69	16.147147664627
12	820	70	8.6065186722419
12	856	71	3.7105963656636
12	901	72	5.9542835017801
12	937	73	7.3722771995323
11	14	13	1.407928625471
11	15	14	2.1050269616535
11	16	15	2.3162660283735
11	17	16	1.7380377209745
11	18	17	2.0678937249817
11	19	18	2.3872540553333
11	20	19	1.7640195989516
11	21	20	2.2169354937272
11	22	21	2.5498698164476
11	23	22	2.3455069887918
11	24	23	2.0997949530138
11	25	24	2.0578714020317
11	26	25	1.0569681284466
11	27	26	0.86525854810607
11	29	27	-0.32819196167402
11	53	28	0.31010141952429
11	55	29	-1.9444444444444
11	79	30	-1.9444444444444
11	81	31	-1.9444444444444
11	105	32	2.2296804808313
11	107	33	-0.15527139100601
11	131	34	0.82451564640052
11	133	35	-0.49837142406991
11	157	36	1.7346392655519
11	159	37	-0.84330488193278
11	185	38	0.12390144066717
11	187	39	-0.31361453603377
11	213	40	-4.5
11	215	41	-4.0704627177164
11	243	42	-3.1771299585176
11	245	43	-4.1272259529758
11	273	44	-3.7590488638924
11	275	45	-3.4341517887078
11	303	46	-1.9113957122124
11	305	47	-0.19296337043372
11	333	48	0.43685242387326
11	335	49	0.66785130145049
11	366	50	1.7920644252561
11	368	51	2.5533435415709
11	399	52	2.319083649246
11	401	53	-0.42918971108362
11	432	54	0.49390223462641
11	434	55	-1.3601261534338
11	465	56	-0.74945181522237
11	467	57	0.22093788980181
11	500	58	-0.35548417060959
11	502	59	1.613840791909
11	537	60	1.6228400300723
11	539	61	1.8104536509607
11	586	62	1.7659026489127
11	588	63	1.6613763009896
11	635	64	2.5544525223551
11	637	65	2.3139125195099
11	684	66	2.2041026292834
11	686	67	2.5117295373231
11	734	68	1.1518895806478
11	775	69	1.7883773910443
11	820	70	0.60917297287143
11	856	71	-0.11196642122736
11	901	72	0.21168741272396
11	937	73	0.39933655564493
9	13	12	1.7626134104794
9	14	13	3.1705420359503
9	15	14	5.2755689976038
9	16	15	7.5918350259773
9	17	16	9.3298727469519
9	18	17	11.397766471934
9	19	18	13.785020527267
9	20	19	15.549040126218
9	21	20	17.765975619946
9	22	21	20.315845436393
9	23	22	22.661352425185
9	24	23	24.761147378199
9	25	24	26.819018780231
9	26	25	27.875986908677
9	27	26	28.741245456783
9	29	27	28.413053495109
9	53	28	28.723154914634
9	55	29	26.778710470189
9	79	30	24.834266025745
9	81	31	22.8898215813
9	105	32	25.119502062132
9	107	33	24.964230671125
9	131	34	25.788746317526
9	133	35	25.290374893456
9	157	36	27.025014159008
9	159	37	26.181709277075
9	185	38	26.305610717742
9	187	39	25.991996181709
9	213	40	21.491996181709
9	215	41	17.421533463992
9	243	42	14.244403505475
9	245	43	10.117177552499
9	273	44	6.3581286886064
9	275	45	2.9239768998986
9	303	46	1.0125811876862
9	305	47	0.81961781725247
9	333	48	1.2564702411257
9	335	49	1.9243215425762
9	366	50	3.7163859678323
9	368	51	6.2697295094033
9	399	52	8.5888131586493
9	401	53	8.1596234475657
9	432	54	8.6535256821921
9	434	55	7.2933995287582
9	465	56	6.5439477135359
9	467	57	6.7648856033377
9	500	58	6.4094014327281
9	502	59	8.0232422246371
9	537	60	9.6460822547094
9	539	61	11.45653590567
9	586	62	13.222438554583
9	588	63	14.883814855572
9	635	64	17.438267377928
9	637	65	19.752179897437
9	684	66	21.956282526721
9	686	67	24.468012064044
9	734	68	25.619901644692
9	775	69	27.408279035736
9	820	70	28.017452008608
9	856	71	27.90548558738
9	901	72	28.117173000104
9	937	73	28.516509555749
4	12	11	491.55715014887
4	13	12	491.90177568312
4	14	13	492.52167891119
4	15	14	493.55315624675
4	16	15	495.03750907545
4	17	16	496.86168240851
4	18	17	499.0901695721
4	19	18	501.78541178209
4	20	19	504.86928927875
4	21	20	508.76420365699
4	22	21	513.25130773034
4	23	22	518.52939823113
4	24	23	524.5160334925
4	25	24	534.74281749792
4	26	25	542.29553108984
4	27	26	549.89342119353
4	29	27	556.635856205
4	53	28	563.30888364176
4	55	29	568.98263744091
4	79	30	574.97442166292
4	81	31	583.5970681407
4	105	32	589.59192210972
4	107	33	595.58396348371
4	131	34	601.78042614056
4	133	35	607.85714121912
4	157	36	614.35065156566
4	159	37	620.64212835099
4	185	38	626.96263193624
4	187	39	633.21495192354
4	213	40	638.37820801445
4	215	41	642.56356579759
4	243	42	645.98636237303
4	245	43	648.41771216411
4	273	44	649.94569116601
4	275	45	650.64837831248
4	303	46	650.89172079079
4	305	47	651.08869050872
4	333	48	651.39030693156
4	335	49	651.85198067744
4	366	50	652.74359769308
4	368	51	654.27776820176
4	399	52	652.5649425141
4	401	53	647.60852179051
4	432	54	645.29773499366
4	434	55	649.43148298084
4	465	56	655.59284847958
4	467	57	662.40955027326
4	500	58	665.37952099306
4	502	59	667.19813888068
4	537	60	669.38329798484
4	539	61	671.97858517764
4	586	62	674.97390817239
4	588	63	678.35517640928
4	635	64	682.38464624363
4	637	65	686.93505260249
4	684	66	692.00732604995
4	686	67	697.53973524641
4	734	68	703.24822867888
4	775	69	709.61615672239
4	820	70	716.12239507957
4	856	71	722.36705322032
4	901	72	729.06265681621
4	937	73	735.86724973521
3	12	11	584.49238196512
3	13	12	586.22125756043
3	14	13	589.33111291343
3	15	14	594.50570334664
3	16	15	601.95222464392
3	17	16	611.10351624514
3	18	17	622.28312044942
3	19	18	635.80428477774
3	20	19	651.09462273534
3	21	20	668.50721344971
3	22	21	688.32204481165
3	23	22	710.43151287421
3	24	23	734.53731735524
3	25	24	759.62041097262
3	26	25	786.45628132378
3	27	26	814.12759943147
3	29	27	841.7077992837
3	53	28	869.62681979634
3	55	29	895.83075163653
3	79	30	919.93069208618
3	81	31	941.37368346029
3	105	32	965.76891004543
3	107	33	990.00333555929
3	131	34	1015.0347932945
3	133	35	1039.582514322
3	157	36	1065.8139367954
3	159	37	1091.2232911531
3	185	38	1116.7574720894
3	187	39	1141.9896331209
3	213	40	1162.8524756728
3	215	41	1179.7640111386
3	243	42	1193.5912472036
3	245	43	1203.4120579294
3	273	44	1209.583935224
3	275	45	1212.4222588129
3	303	46	1213.405178025
3	305	47	1214.2007864256
3	333	48	1215.4200908648
3	335	49	1217.2872138902
3	366	50	1220.8931340331
3	368	51	1227.1038884037
3	399	52	1234.9487020104
3	401	53	1241.4229996674
3	432	54	1250.5402415927
3	434	55	1258.5731875791
3	465	56	1261.6363742777
3	467	57	1263.1018523876
3	500	58	1268.5125305023
3	502	59	1276.3262697146
3	537	60	1285.7207772699
3	539	61	1296.87852093
3	586	62	1309.7561116056
3	588	63	1324.2494879788
3	635	64	1341.2106992197
3	637	65	1360.4367971476
3	684	66	1381.8077115734
3	686	67	1405.6388552836
3	734	68	1430.6125289595
3	775	69	1457.2765047174
3	820	70	1484.5254022207
3	856	71	1511.716029295
3	901	72	1539.0262076824
3	937	73	1566.7188344447
15	15	14	582.62165886857
15	16	15	584.06487855404
15	17	16	587.56917887465
15	18	17	592.37460326145
15	19	18	598.65771370191
15	20	19	606.35192680916
15	21	20	615.475913472
15	22	21	626.88239272552
15	23	22	640.05903106204
15	24	23	654.68319638466
15	25	24	670.70836741543
15	26	25	688.86131114146
15	27	26	708.43440086747
15	29	27	729.95732249017
15	53	28	753.97259724204
15	55	29	778.71314448117
15	79	30	805.53184759592
15	81	31	832.50897070966
15	105	32	859.81284466052
15	107	33	886.78092520622
15	131	34	913.57728850272
15	133	35	940.57121826529
15	157	36	966.96217913807
15	159	37	994.10609863496
15	185	38	1020.9042706075
15	187	39	1048.159749844
15	213	40	1074.4296080272
15	215	41	1101.0913267182
15	243	42	1126.9610014369
15	245	43	1149.6049530009
15	273	44	1168.8825736192
15	275	45	1183.8969413254
15	303	46	1194.7437071144
15	305	47	1201.5930065856
15	333	48	1205.8346592043
15	335	49	1207.4846450017
15	366	50	1209.5117346718
15	368	51	1212.4466246479
15	399	52	1216.8492947149
15	401	53	1222.9660047341
15	432	54	1230.9817458381
15	434	55	1239.4083562885
15	465	56	1247.431642174
15	467	57	1256.6097053957
15	500	58	1261.3753763401
15	502	59	1262.1110353773
15	537	60	1266.470093786
15	539	61	1275.2086367443
15	586	62	1285.9884261295
15	588	63	1298.8694942109
15	635	64	1313.4223995662
15	637	65	1330.1189133158
15	684	66	1348.1935998414
15	686	67	1367.7872673012
15	734	68	1389.2202287598
15	775	69	1412.2352551669
15	820	70	1437.502848435
15	856	71	1464.7644085759
15	901	72	1492.1816007915
15	937	73	1519.5942613251
15	977	74	1546.9571195605
16	15	14	500.97642705232
16	16	15	501.26394428907
16	17	16	501.96206859755
16	18	17	502.91940195089
16	19	18	504.17111890722
16	20	19	505.70395476985
16	21	20	507.52162914044
16	22	21	509.79402012083
16	23	22	512.4190609807
16	24	23	515.47645784719
16	25	24	519.1088299475
16	26	25	523.22349719206
16	27	26	527.92321182558
16	29	27	533.23573846244
16	53	28	536.47533052003
16	55	29	543.43833432648
16	79	30	550.95186775524
16	81	31	557.71888758051
16	105	32	564.2918885384
16	107	33	570.12955422599
16	131	34	576.68626265205
16	133	35	583.39755734505
16	157	36	589.88661954445
16	159	37	596.59959023854
16	185	38	603.23339773214
16	187	39	609.98041027414
16	213	40	616.48343526593
16	215	41	623.08349953672
16	243	42	629.49085186614
16	245	43	635.09963983041
16	273	44	639.87056909687
16	275	45	643.58640559585
16	303	46	646.27167824373
16	305	47	647.96736745956
16	333	48	649.01747844287
16	335	49	649.42596738902
16	366	50	649.92781638944
16	368	51	650.65441059123
16	399	52	651.74369869317
16	401	53	653.2561455907
16	432	54	655.09162381241
16	434	55	649.17840114293
16	465	56	645.0081642174
16	467	57	647.57819417598
16	500	58	653.13520195851
16	502	59	659.52870634231
16	537	60	664.90398734674
16	539	61	666.9381778507
16	586	62	669.44555301405
16	588	63	672.44168485216
16	635	64	675.82668544341
16	637	65	679.75822629062
16	684	66	684.04138170679
16	686	67	688.65550707798
16	734	68	693.78591327683
16	775	69	698.97067162208
16	820	70	704.89378442852
16	856	71	711.40102849131
16	901	72	717.91560606729
16	937	73	724.29124712787
16	977	74	731.02321004176
17	16	15	1.471595842368
17	17	16	3.5732008329127
17	18	17	4.8999072141247
17	19	18	6.4066470921738
17	20	19	7.8454944405705
17	21	20	9.3033797792392
17	22	21	11.630750061455
17	23	22	13.435713486699
17	24	23	15.071337544732
17	25	24	16.425800306536
17	26	25	18.606767319189
17	27	26	20.205360512622
17	29	27	22.220626920578
17	53	28	24.115635691886
17	55	29	25.699452334759
17	79	30	27.837989928601
17	81	31	27.773530783811
17	105	32	28.084589645038
17	107	33	27.548015140653
17	131	34	27.642691394388
17	133	35	27.816435239934
17	157	36	27.175459998245
17	159	37	27.962074973578
17	185	38	27.608909799955
17	187	39	28.080052197938
17	213	40	27.064612682564
17	215	41	27.471242208574
17	243	42	26.652159003646
17	245	43	23.324560195073
17	273	44	19.858972201832
17	275	45	15.467153172567
17	303	46	11.174075508342
17	305	47	7.0559937255093
17	333	48	4.3696547929619
17	335	49	1.6997781280484
17	366	50	2.0882620264616
17	368	51	3.0234574124367
17	399	52	4.5365550129592
17	401	53	6.3040928206789
17	432	54	8.0048079714795
17	434	55	10.3212681255
17	465	56	8.6312434287806
17	467	57	7.6734224233797
17	500	58	6.5301264584613
17	502	59	5.90774865415
17	537	60	7.3811007621211
17	539	61	8.9729163002201
17	586	62	11.068460426082
17	588	63	13.226009081605
17	635	64	14.942616340059
17	637	65	17.154632030621
17	684	66	18.577419893031
17	686	67	20.119765306946
17	734	68	22.039652956098
17	775	69	23.590785231052
17	820	70	25.95439294263
17	856	71	28.025533332307
17	901	72	28.180732116224
17	937	73	28.151579202041
17	977	74	28.177003406644
18	17	16	2.1016049905447
18	18	17	1.326706381212
18	19	18	1.5067398780491
18	20	19	1.4388473483967
18	21	20	1.4578853386687
18	22	21	2.327370282216
18	23	22	1.8049634252442
18	24	23	1.6356240580324
18	25	24	1.3544627618045
18	26	25	2.1809670126531
18	27	26	1.5985931934323
18	29	27	2.0152664079564
18	53	28	1.8950087713078
18	55	29	1.583816642873
18	79	30	2.1385375938421
18	81	31	-0.064459144789723
18	105	32	0.31105886122677
18	107	33	-0.53657450438477
18	131	34	0.094676253735088
18	133	35	0.17374384554569
18	157	36	-0.64097524168901
18	159	37	0.78661497533322
18	185	38	-0.35316517362371
18	187	39	0.47114239798393
18	213	40	-1.0154395153746
18	215	41	0.40662952600978
18	243	42	-0.81908320492779
18	245	43	-3.3275988085732
18	273	44	-3.4655879932409
18	275	45	-4.3918190292646
18	303	46	-4.2930776642247
18	305	47	-4.1180817828331
18	333	48	-2.6863389325474
18	335	49	-2.6698766649135
18	366	50	0.38848389841323
18	368	51	0.93519538597512
18	399	52	1.5130976005225
18	401	53	1.7675378077198
18	432	54	1.7007151508005
18	434	55	2.3164601540202
18	465	56	-1.6900246967191
18	467	57	-0.9578210054009
18	500	58	-1.1432959649183
18	502	59	-0.62237780431133
18	537	60	1.4733521079711
18	539	61	1.591815538099
18	586	62	2.0955441258615
18	588	63	2.157548655523
18	635	64	1.7166072584546
18	637	65	2.2120156905614
18	684	66	1.4227878624108
18	686	67	1.5423454139149
18	734	68	1.9198876491515
18	775	69	1.5511322749546
18	820	70	2.3636077115778
18	856	71	2.0711403896774
18	901	72	0.15519878391642
18	937	73	-0.029152914183214
18	977	74	0.02542420460377
19	17	16	3.0963647629843
19	18	17	2.9239170880388
19	19	18	3.7697580664845
19	20	19	4.2535977966354
19	21	20	4.9019275767889
19	22	21	8.3400549205812
19	23	22	7.8266780659406
19	24	23	8.0941907260342
19	25	24	7.6735853191998
19	26	25	12.382644042344
19	27	26	10.631073934016
19	29	27	13.98756113139
19	53	28	14.582473211039
19	55	29	13.727211321884
19	79	30	18.793162038481
19	81	31	3.9974348985172
19	105	32	6.6165030586302
19	107	33	0.80783250476532
19	131	34	5.0254594708641
19	133	35	5.6048800544017
19	157	36	0.076987102775183
19	159	37	9.7794509082392
19	185	38	2.0360903546075
19	187	39	7.6982844721284
19	213	40	0.973
19	215	41	7.0425028408118
19	243	42	0.973
19	245	43	0.973
19	273	44	0.973
19	275	45	0.973
19	303	46	0.973
19	305	47	0.973
19	333	48	0.973
19	335	49	0.973
19	366	50	1.407091752852
19	368	51	1.9398379268425
19	399	52	2.9917526292552
19	401	53	4.122649647275
19	432	54	4.8244847174489
19	434	55	7.4714918068324
19	465	56	0.973
19	467	57	0.973
19	500	58	0.973
19	502	59	0.973
19	537	60	4.1240778054933
19	539	61	5.0518493857511
19	586	62	7.3590706396753
19	588	63	8.8388672612786
19	635	64	8.3208414870486
19	637	65	11.54895671254
19	684	66	8.9685035500196
19	686	67	10.311587010262
19	734	68	13.35976303817
19	775	69	12.27962458147
19	820	70	18.76154866123
19	856	71	18.48420590072
19	901	72	5.5909035977846
19	937	73	4.3312575201212
19	977	74	4.7085089586068
20	18	17	595.94565482233
20	19	18	594.42572707465
20	20	19	591.59865686171
20	21	20	586.94436406763
20	22	21	579.57277988359
20	23	22	569.90408080714
20	24	23	557.73682561733
20	25	24	547.8587458505
20	26	25	542.43867261263
20	27	26	539.36471105972
20	29	27	539.27896535586
20	53	28	539.52644416772
20	55	29	539.8537965009
20	79	30	540.24374560229
20	81	31	540.6855250853
20	105	32	541.25133652532
20	107	33	542.07563603952
20	131	34	543.01035980186
20	133	35	544.04083878401
20	157	36	545.07933338594
20	159	37	546.79181744579
20	185	38	548.58897025645
20	187	39	550.39719369476
20	213	40	552.2506758234
20	215	41	550.66540253111
20	243	42	551.57097610791
20	245	43	552.35374507735
20	273	44	553.29742924445
20	275	45	554.50288831782
20	303	46	555.40626531313
20	305	47	555.82232334529
20	333	48	556.10190194587
20	335	49	556.42947116468
20	366	50	557.28950080692
20	368	51	558.37582468912
20	399	52	559.4711785243
20	401	53	560.55132059598
20	432	54	562.05233992688
20	434	55	563.68778817642
20	465	56	565.33285389461
20	467	57	566.63130838413
20	500	58	567.5386798129
20	502	59	568.0859756744
20	537	60	569.13079795132
20	539	61	574.21769124938
20	586	62	580.05691672077
20	588	63	588.47994005535
20	635	64	598.60736562541
20	637	65	610.47893345053
20	684	66	623.76975443581
20	686	67	639.16609189779
20	734	68	655.85568978595
20	775	69	674.38132159278
20	820	70	694.11741970596
20	856	71	715.29874946737
20	901	72	738.51335089692
20	937	73	761.19777694231
20	977	74	785.42227541888
21	18	17	1076.2739898477
21	19	18	1072.6255337268
21	20	19	1068.6800599971
21	21	20	1064.2938569218
21	22	21	1062.5628029508
21	23	22	1060.2923222083
21	24	23	1057.4351106663
21	25	24	1055.1129844611
21	26	25	1053.5671842506
21	27	26	1049.2165327167
21	29	27	1043.7923644867
21	53	28	1036.7798203411
21	55	29	1027.5039850879
21	79	30	1016.4544117227
21	81	31	1003.6914506194
21	105	32	989.26364237315
21	107	33	973.31094007438
21	131	34	955.66303587765
21	133	35	936.2072403943
21	157	36	917.86482366968
21	159	37	898.55638541255
21	185	38	879.94022536324
21	187	39	861.04718616431
21	213	40	841.68126612992
21	215	41	822.6217884287
21	243	42	803.24007247037
21	245	43	784.15009454217
21	273	44	764.77266337641
21	275	45	745.68071887764
21	303	46	726.26963238064
21	305	47	706.69113007063
21	333	48	687.35442694183
21	335	49	668.69544725467
21	366	50	649.16234955189
21	368	51	630.20105997175
21	399	52	611.21134402741
21	401	53	592.71467386204
21	432	54	574.07042625527
21	434	55	555.66721331748
21	465	56	537.15577786431
21	467	57	522.54465552076
21	500	58	512.33427459184
21	502	59	506.17571697198
21	537	60	500.5795054976
21	539	61	496.62204238297
21	586	62	500.46548087917
21	588	63	502.14350981586
21	635	64	504.16108859792
21	637	65	506.52613420483
21	684	66	509.17392245374
21	686	67	512.2411702523
21	734	68	515.74222301815
21	775	69	519.9413662277
21	820	70	524.4549069278
21	856	71	529.58946805994
21	901	72	535.48550786866
21	937	73	541.8336458104
21	977	74	545.32655869782
22	19	18	2.3114088772098
22	20	19	3.6542700873455
22	21	20	5.5382328116568
22	22	21	7.5714394382434
22	23	22	9.9308327323291
22	24	23	12.497128636041
22	25	24	10.152723236456
22	26	25	5.6527232364558
22	27	26	5.5851859769591
22	29	27	5.4353930643101
22	53	28	7.0164110019843
22	55	29	9.2809501334831
22	79	30	11.05566631982
22	81	31	12.766183828264
22	105	32	14.445591659429
22	107	33	15.973781348187
22	131	34	17.67187147269
22	133	35	19.482218021353
22	157	36	18.37056229926
22	159	37	19.386582182942
22	185	38	18.704554565798
22	187	39	18.979911143484
22	213	40	19.454966328817
22	215	41	19.326385247882
22	243	42	19.436767804728
22	245	43	19.076655426331
22	273	44	19.370779964829
22	275	45	19.15068193964
22	303	46	19.523692507751
22	305	47	19.609406880674
22	333	48	19.332614883816
22	335	49	18.649936854013
22	366	50	19.501852516399
22	368	51	18.987053525297
22	399	52	19.015945804899
22	401	53	18.522982658434
22	432	54	18.701031606773
22	434	55	18.470554912149
22	465	56	18.579173440862
22	467	57	14.664588106805
22	500	58	10.247743274994
22	502	59	6.1810933276555
22	537	60	5.7049221951918
22	539	61	6.739424964011
22	586	62	6.5129544080405
22	588	63	8.5886343181769
22	635	64	10.326548004284
22	637	65	12.104983066435
22	684	66	13.552141160791
22	686	67	15.699055677227
22	734	68	17.18363914999
22	775	69	18.988772602001
22	820	70	20.305841596372
22	856	71	21.805180466006
22	901	72	24.104247309541
22	937	73	23.577279303689
22	977	74	24.259682479921
23	20	19	595.94565482233
23	21	20	594.21463828396
23	22	21	591.09244469584
23	23	22	585.53524001325
23	24	23	577.88805476151
23	25	24	568.90902763418
23	26	25	558.28554355463
23	27	26	551.83337700176
23	29	27	545.43285181499
23	53	28	541.11294430336
23	55	29	539.17643556405
23	79	30	539.42337725963
23	81	31	539.75977588638
23	105	32	540.1458175667
23	107	33	540.58396898486
23	131	34	541.10707259119
23	133	35	541.87523178536
23	157	36	542.81273817774
23	159	37	543.86051497944
23	185	38	545.02995604569
23	187	39	546.84000427814
23	213	40	548.74213263679
23	215	41	550.77449069118
23	243	42	552.62944129254
23	245	43	550.96436195956
23	273	44	551.7894019931
23	275	45	552.65448873865
23	303	46	553.67812513692
23	305	47	554.99073207231
23	333	48	555.59379346291
23	335	49	555.93266367598
23	366	50	556.20474460398
23	368	51	556.7264079608
23	399	52	557.71806949052
23	401	53	558.81816859955
23	432	54	559.88953837176
23	434	55	561.082136017
23	465	56	562.71686972077
23	467	57	564.3792548167
23	500	58	565.7469615529
23	502	59	566.7162223757
23	537	60	567.34060894667
23	539	61	567.82071401182
23	586	62	568.11544786025
23	588	63	569.25550470351
23	635	64	574.8285260205
23	637	65	583.5664949841
23	684	66	593.79726873339
23	686	67	606.17785775519
23	734	68	620.45683043945
23	775	69	637.25835104136
23	820	70	656.30472953114
23	856	71	677.38164515391
23	901	72	700.4087215948
23	937	73	726.36274488298
23	977	74	752.76915222696
24	20	19	1076.2739898477
24	21	20	1072.5759538397
24	22	21	1068.5611624379
24	23	22	1063.9629552148
24	24	23	1062.1671824111
24	25	24	1060.0586559158
24	26	25	1057.5639649724
24	27	26	1056.047687364
24	29	27	1054.5430078716
24	53	28	1052.6129443034
24	55	29	1046.9572267686
24	79	30	1039.7003178072
24	81	31	1030.1681473444
24	105	32	1019.2292944187
24	107	33	1006.6746610697
24	131	34	992.62138543998
24	133	35	977.09464090716
24	157	36	959.39419970398
24	159	37	939.61181547374
24	185	38	918.5247810238
24	187	39	898.08299797159
24	213	40	878.33992376645
24	215	41	857.10503676402
24	243	42	836.60409796681
24	245	43	817.23415787767
24	273	44	797.91315547431
24	275	45	777.28163821711
24	303	46	757.3658888802
24	305	47	738.4339260229
24	333	48	718.98444789549
24	335	49	699.16961964439
24	366	50	680.1745743916
24	368	51	660.53238478686
24	399	52	641.68187798368
24	401	53	622.48014808062
24	432	54	604.04722709157
24	434	55	584.98784241408
24	465	56	566.59267004746
24	467	57	547.88634478558
24	500	58	532.49594749863
24	502	59	521.58914361827
24	537	60	514.56310716359
24	539	61	509.16062759944
24	586	62	505.84407522666
24	588	63	500.27199642019
24	635	64	496.65514180407
24	637	65	497.90114068066
24	684	66	499.93930841617
24	686	67	502.40576087706
24	734	68	505.2504080303
24	775	69	508.59759545106
24	820	70	512.56324237216
24	856	71	517.34200401378
24	901	72	522.68299799887
24	937	73	525.68861082967
24	977	74	532.81459253734
25	20	19	1.3428612101357
25	21	20	1.8839627243113
25	22	21	2.0332066265866
25	23	22	2.3593932940857
25	24	23	2.5662959037116
25	25	24	-2.3444053995849
25	26	25	-4.5
25	27	26	-0.067537259496747
25	29	27	-0.14979291264899
25	53	28	1.5810179376742
25	55	29	2.2645391314989
25	79	30	1.7747161863372
25	81	31	1.7105175084434
25	105	32	1.679407831165
25	107	33	1.528189688758
25	131	34	1.6980901245028
25	133	35	1.810346548663
25	157	36	-1.1116557220928
25	159	37	1.016019883682
25	185	38	-0.68202761714347
25	187	39	0.27535657768604
25	213	40	0.4750551853329
25	215	41	-0.12858108093496
25	243	42	0.11038255684543
25	245	43	-0.36011237839703
25	273	44	0.294124538498
25	275	45	-0.22009802518878
25	303	46	0.37301056811121
25	305	47	0.085714372922666
25	333	48	-0.27679199685808
25	335	49	-0.68267802980263
25	366	50	0.85191566238645
25	368	51	-0.51479899110272
25	399	52	0.028892279602587
25	401	53	-0.4929631464649
25	432	54	0.17804894833826
25	434	55	-0.23047669462394
25	465	56	0.10861852871289
25	467	57	-3.9145853340568
25	500	58	-4.4168448318106
25	502	59	-4.0666499473387
25	537	60	-0.47617113246377
25	539	61	1.0345027688192
25	586	62	-0.22647055597044
25	588	63	2.0756799101364
25	635	64	1.7379136861069
25	637	65	1.7784350621514
25	684	66	1.4471580943558
25	686	67	2.1469145164359
25	734	68	1.4845834727632
25	775	69	1.8051334520103
25	820	70	1.3170689943712
25	856	71	1.4993388696341
25	901	72	2.2990668435348
25	937	73	-0.52696800585144
25	977	74	0.68240317623131
26	20	19	2.4734196825744
26	21	20	3.9074082668938
26	22	21	5.2253693870692
26	23	22	7.3263469775033
26	24	23	9.6223552129024
26	25	24	0.973
26	26	25	0.973
26	27	26	1.3046170071825
26	29	27	0.973
26	53	28	4.1538112700503
26	55	29	6.6966779671099
26	79	30	6.4967392458112
26	81	31	7.1807060643773
26	105	32	7.931995103406
26	107	33	8.1401452922005
26	131	34	9.704346871138
26	133	35	11.232893310498
26	157	36	0.973
26	159	37	7.4653177149425
26	185	38	0.973
26	187	39	3.9167346133377
26	213	40	4.9561166873107
26	215	41	2.1102625404621
26	243	42	3.2430263364609
26	245	43	1.0159773905358
26	273	44	4.0889755823667
26	275	45	1.6668291074589
26	303	46	4.4943935700416
26	305	47	3.157604604456
26	333	48	1.4204766717976
26	335	49	0.973
26	366	50	6.739900450822
26	368	51	0.973
26	399	52	2.7949614015788
26	401	53	0.973
26	432	54	3.4187794559559
26	434	55	1.5571947518496
26	465	56	3.0850577778123
26	467	57	0.973
26	500	58	0.973
26	502	59	0.973
26	537	60	0.973
26	539	61	3.1436282361416
26	586	62	0.973
26	588	63	5.8792098315264
26	635	64	6.0350225696541
26	637	65	7.0460317194386
26	684	66	6.7201995920587
26	686	67	10.347546179982
26	734	68	8.5557055110998
26	775	69	10.919344273323
26	820	70	9.3083607519496
26	856	71	10.998729463476
26	901	72	16.922111448689
26	937	73	0.46381822792789
26	977	74	7.5889632991305
27	21	20	2.5282658430282
27	22	21	3.957457951922
27	23	22	6.4655156075023
27	24	23	7.8545124848373
27	25	24	9.222462690738
27	26	25	10.911503460231
27	27	26	6.6302083018899
27	29	27	6.5793800412679
27	53	28	4.8254934908959
27	55	29	6.1876586309539
27	79	30	7.2611827092553
27	81	31	9.5374266913002
27	105	32	10.944884826995
27	107	33	12.559386199487
27	131	34	14.067452444493
27	133	35	15.546291609977
27	157	36	17.724479828619
27	159	37	19.809250302085
27	185	38	21.118210894456
27	187	39	20.524218258044
27	213	40	19.836128594024
27	215	41	21.332526980135
27	243	42	20.593007264678
27	245	43	19.660224966932
27	273	44	19.327810831934
27	275	45	20.617999462452
27	303	46	19.911389543822
27	305	47	19.083638580138
27	333	48	19.493497971559
27	335	49	19.818913891954
27	366	50	18.995045252791
27	368	51	19.606152517398
27	399	52	18.856420077304
27	401	53	19.227820550217
27	432	54	18.458851277116
27	434	55	19.092340269341
27	465	56	18.462484918499
27	467	57	18.774776400293
27	500	58	15.446714612776
27	502	59	10.946714612776
27	537	60	7.0517464852241
27	539	61	5.4222485926075
27	586	62	3.3286884701793
27	588	63	5.7109811855928
27	635	64	7.0122285155795
27	637	65	8.8476288534753
27	684	66	10.431928184727
27	686	67	12.624012486735
27	734	68	14.559721605043
27	775	69	17.131867110781
27	820	70	19.494365745928
27	856	71	21.609841247025
27	901	72	23.662491867114
27	937	73	25.925595253152
27	977	74	27.297749666246
28	22	21	1.4291921088938
28	23	22	2.5080576555803
28	24	23	1.388996877335
28	25	24	1.3679502059007
28	26	25	1.6890407694934
28	27	26	-4.2812951583415
28	29	27	-0.050828260621988
28	53	28	-1.753886550372
28	55	29	1.3621651400579
28	79	30	1.0735240783014
28	81	31	2.276243982045
28	105	32	1.4074581356952
28	107	33	1.6145013724919
28	131	34	1.5080662450055
28	133	35	1.4788391654845
28	157	36	2.178188218642
28	159	37	2.0847704734653
28	185	38	1.3089605923716
28	187	39	-0.5939926364119
28	213	40	-0.68808966402037
28	215	41	1.4963983861109
28	243	42	-0.73951971545657
28	245	43	-0.93278229774594
28	273	44	-0.33241413499817
28	275	45	1.2901886305175
28	303	46	-0.70660991862998
28	305	47	-0.82775096368416
28	333	48	0.40985939142183
28	335	49	0.32541592039452
28	366	50	-0.82386863916327
28	368	51	0.61110726460698
28	399	52	-0.74973244009353
28	401	53	0.37140047291256
28	432	54	-0.76896927310091
28	434	55	0.63348899222495
28	465	56	-0.62985535084136
28	467	57	0.31229148179341
28	500	58	-3.3280617875164
28	502	59	-4.5
28	537	60	-3.8949681275524
28	539	61	-1.6294978926166
28	586	62	-2.0935601224281
28	588	63	2.3822927154135
28	635	64	1.3012473299867
28	637	65	1.8354003378958
28	684	66	1.5842993312515
28	686	67	2.1920843020082
28	734	68	1.9357091183076
28	775	69	2.5721455057384
28	820	70	2.3624986351468
28	856	71	2.1154755010968
28	901	72	2.0526506200898
28	937	73	2.263103386038
28	977	74	1.3721544130938
29	22	21	2.6697215896761
29	23	22	5.3548928885717
29	24	23	4.1629501265367
29	25	24	4.6677787234504
29	26	25	6.1980072076642
29	27	26	0.973
29	29	27	1.3731048580646
29	53	28	0.973
29	55	29	3.4616736188074
29	79	30	3.3742543026858
29	81	31	6.8822205359062
29	105	32	5.4715751655091
29	107	33	6.7856683516185
29	131	34	7.1585138630633
29	133	35	7.7477539584221
29	157	36	11.783767709521
29	159	37	12.736440187719
29	185	38	9.6607324990009
29	187	39	0.973
29	213	40	0.973
29	215	41	10.729081474721
29	243	42	0.973
29	245	43	0.973
29	273	44	1.1609798548901
29	275	45	9.3251573011306
29	303	46	0.973
29	305	47	0.973
29	333	48	4.6601511917125
29	335	49	4.3395054330467
29	366	50	0.973
29	368	51	5.6395585307658
29	399	52	0.973
29	401	53	4.4152782154492
29	432	54	0.973
29	434	55	5.5887682708683
29	465	56	0.973
29	467	57	4.0400870639711
29	500	58	0.973
29	502	59	0.973
29	537	60	0.973
29	539	61	0.973
29	586	62	0.973
29	588	63	4.6815648805713
29	635	64	3.6791613248014
29	637	65	5.5143757411528
29	684	66	5.701188423831
29	686	67	8.5740021817705
29	734	68	8.8896797376309
29	775	69	13.020765262224
29	820	70	13.834146883206
29	856	71	14.102034700376
29	901	72	15.180971384448
29	937	73	18.110427330929
29	977	74	13.333029265593
30	159	37	584.49238196512
30	185	38	585.81517834848
30	187	39	589.24617427946
30	213	40	594.46224367305
30	215	41	601.04601177341
30	243	42	609.88028750934
30	245	43	620.37648573871
30	273	44	632.67608920911
30	275	45	647.49583535211
30	303	46	664.39609575895
30	305	47	683.15851794061
30	333	48	703.68601322038
30	335	49	725.547651077
30	366	50	747.95671541074
30	368	51	772.36470054049
30	399	52	797.58197359153
30	401	53	821.6731119846
30	432	54	847.17349967313
30	434	55	871.85891909987
30	465	56	896.23295869107
30	467	57	921.11473845987
30	500	58	945.65907876632
30	502	59	970.59647104897
30	537	60	995.61183952891
30	539	61	1020.6924565668
30	586	62	1045.2959090658
30	588	63	1070.6743652287
30	635	64	1096.1622829847
30	637	65	1120.4791416945
30	684	66	1145.9629076874
30	686	67	1171.3677966474
30	734	68	1194.9859565967
30	775	69	1214.5514853475
30	820	70	1229.9786958248
30	856	71	1239.2613876759
30	901	72	1246.6271916414
30	937	73	1256.0417400176
30	977	74	1261.5048846807
31	159	37	491.55715014887
31	185	38	491.82082985582
31	187	39	492.50474766282
31	213	40	493.54449320976
31	215	41	494.85686907134
31	243	42	496.61785002535
31	245	43	498.7101104125
31	273	44	501.16185270589
31	275	45	504.11594781014
31	303	46	507.83323368812
31	305	47	512.0820178165
31	333	48	516.89199146361
31	335	49	522.198698989
31	366	50	531.46017561415
31	368	51	538.32958281535
31	399	52	545.42675680045
31	401	53	551.77330800993
31	432	54	557.94683216798
31	434	55	563.77155136247
31	465	56	572.37407433259
31	467	57	578.56024129618
31	500	58	584.66251326216
31	502	59	590.78416772516
31	537	60	596.97233190301
31	539	61	603.18096379852
31	586	62	609.27147503651
31	588	63	615.55383611854
31	635	64	621.86404453325
31	637	65	627.88955143045
31	684	66	634.19828686159
31	686	67	640.48562546267
31	734	68	646.33165223618
31	775	69	651.17551345788
31	820	70	654.98729513974
31	856	71	649.29287797993
31	901	72	644.97053723879
31	937	73	647.19543622812
31	977	74	654.09514989936
32	185	38	1.3486098427093
32	187	39	3.4979494508822
32	213	40	5.3178573912941
32	215	41	6.7122457952937
32	243	42	9.0066705356352
32	245	43	10.701024300628
32	273	44	12.539621751476
32	275	45	15.108943270682
32	303	46	17.180246138899
32	305	47	19.236826299061
32	333	48	21.014065809757
32	335	49	22.496445611678
32	366	50	23.909330540174
32	368	51	25.354000635744
32	399	52	26.194655296995
32	401	53	24.963538817685
32	432	54	26.255999515761
32	434	55	25.383885841115
32	465	56	25.703757604743
32	467	57	25.639928001627
32	500	58	25.292206753391
32	502	59	25.675815151419
32	537	60	25.770126915976
32	539	61	25.839392859928
32	586	62	25.347792435597
32	588	63	26.146242653528
32	635	64	26.262289240906
32	637	65	25.053036011472
32	684	66	26.249610307926
32	686	67	26.171019423843
32	734	68	24.330619197871
32	775	69	20.155966121933
32	820	70	15.655966121933
32	856	71	11.155966121933
32	901	72	8.1139072294547
32	937	73	7.8388812843911
32	977	74	7.9364543801087
33	187	39	2.1493396081729
33	213	40	1.8199079404119
33	215	41	1.3943884039996
33	243	42	2.2944247403415
33	245	43	1.6943537649931
33	273	44	1.8385974508477
33	275	45	2.5693215192063
33	303	46	2.0713028682163
33	305	47	2.0565801601624
33	333	48	1.7772395106964
33	335	49	1.4823798019206
33	366	50	1.4128849284956
33	368	51	1.4446700955705
33	399	52	0.8406546612503
33	401	53	-1.2311164793093
33	432	54	1.2924606980756
33	434	55	-0.87211367464624
33	465	56	0.31987176362891
33	467	57	-0.06382960311603
33	500	58	-0.34772124823649
33	502	59	0.38360839802772
33	537	60	0.094311764556917
33	539	61	0.069265943951905
33	586	62	-0.49160042433068
33	588	63	0.79845021793153
33	635	64	0.11604658737778
33	637	65	-1.2092532294337
33	684	66	1.196574296453
33	686	67	-0.078590884082949
33	734	68	-1.8404002259716
33	775	69	-4.1746530759381
33	820	70	-4.5
33	856	71	-4.5
33	901	72	-3.0420588924781
33	937	73	-0.27502594506368
33	977	74	0.097573095717654
34	187	39	3.0946006624326
34	213	40	3.7128266407072
34	215	41	3.7173696368114
34	243	42	6.5922716187272
34	245	43	6.1090663320288
34	273	44	7.4533913197277
34	275	45	11.513032511788
34	303	46	10.983326316757
34	305	47	12.23006154688
34	333	48	11.981593335778
34	335	49	11.283917771024
34	366	50	11.667265721322
34	368	51	12.666074056695
34	399	52	9.3410014819379
34	401	53	0.973
34	432	54	12.226972688873
34	434	55	0.973
34	465	56	5.900210484397
34	467	57	3.5095764318374
34	500	58	1.7052155021882
34	502	59	6.2859918927554
34	537	60	4.519849020874
34	539	61	4.3815795201709
34	586	62	0.83418320888662
34	588	63	9.0537280994407
34	635	64	4.784663237061
34	637	65	0.973
34	684	66	11.616861628236
34	686	67	3.532702248893
34	734	68	0.973
34	775	69	0.973
34	820	70	0.973
34	856	71	0.973
34	901	72	0.973
34	937	73	0.973
34	977	74	1.7256610283385
35	213	40	595.94565482233
35	215	41	595.2466554034
35	243	42	592.709292705
35	245	43	588.01605658103
35	273	44	580.58551840327
35	275	45	571.02930791599
35	303	46	559.35982678961
35	305	47	549.69099184601
35	333	48	544.40110755956
35	335	49	540.16811184718
35	366	50	539.19119264601
35	368	51	539.45876136696
35	399	52	539.77265585138
35	401	53	540.13528103393
35	432	54	540.55293632787
35	434	55	541.08174062428
35	465	56	541.90768233515
35	467	57	542.77534546042
35	500	58	543.63608313423
35	502	59	544.50995819913
35	537	60	545.57476292221
35	539	61	547.10607149586
35	586	62	548.64877255229
35	588	63	550.217929308
35	635	64	551.83351720839
35	637	65	551.25177831718
35	684	66	551.15519295093
35	686	67	551.82452125904
35	734	68	552.50889232972
35	775	69	553.36862516451
35	820	70	554.42592062477
35	856	71	555.27983944978
35	901	72	555.72462571579
35	937	73	555.97290059249
35	977	74	556.20308515143
36	213	40	1076.2739898477
36	215	41	1072.8183508519
36	243	42	1068.9409227338
36	245	43	1064.5455202733
36	273	44	1062.800622257
36	275	45	1060.5565569788
36	303	46	1057.8162366976
36	305	47	1055.5438686326
36	333	48	1054.3015358118
36	335	49	1051.5079083556
36	366	50	1046.2794865071
36	368	51	1038.6976759535
36	399	52	1029.8031814614
36	401	53	1019.5278569525
36	432	54	1007.5862453688
36	434	55	993.21098696994
36	465	56	976.48196343294
36	467	57	960.10018699095
36	500	58	943.84916544008
36	502	59	927.35010545395
36	537	60	911.24311492139
36	539	61	895.43414266244
36	586	62	879.31538714052
36	588	63	862.9202119278
36	635	64	846.03990560918
36	637	65	829.761656939
36	684	66	813.38009027842
36	686	67	797.05667541729
36	734	68	780.36640134651
36	775	69	763.3874839316
36	820	70	746.72747950316
36	856	71	730.1573869145
36	901	72	713.28314907156
36	937	73	696.36052142692
36	977	74	680.29042733492
37	215	41	1.4680480054813
37	243	42	3.3566460762639
37	245	43	5.5784699095879
37	273	44	7.6319917675573
37	275	45	9.815294400393
37	303	46	11.985859133978
37	305	47	9.9360906751896
37	333	48	5.4360906751896
37	335	49	5.2393626539532
37	366	50	5.3929913304077
37	368	51	7.5859913148947
37	399	52	8.8993990933552
37	401	53	10.28099052741
37	432	54	11.94652906752
37	434	55	14.38880191448
37	465	56	16.75003597871
37	467	57	16.404024214433
37	500	58	16.273091747631
37	502	59	16.521467039078
37	537	60	16.1390890022
37	539	61	15.888286636161
37	586	62	16.192871053094
37	588	63	16.470561747249
37	635	64	16.957923530923
37	637	65	16.495281003854
37	684	66	16.513611657378
37	686	67	16.312023086563
37	734	68	16.67862627273
37	775	69	16.974603543264
37	820	70	16.703651562865
37	856	71	16.690249833461
37	901	72	16.918126698673
37	937	73	16.913397419146
37	977	74	16.070094092
38	243	42	1.8885980707826
38	245	43	2.221823833324
38	273	44	2.0535218579695
38	275	45	2.1833026328357
38	303	46	2.1705647335853
38	305	47	-2.0497684587887
38	333	48	-4.5
38	335	49	-0.19672802123645
38	366	50	0.15362867645454
38	368	51	2.192999984487
38	399	52	1.3134077784605
38	401	53	1.381591434055
38	432	54	1.66553854011
38	434	55	2.4422728469595
38	465	56	2.3612340642304
38	467	57	-0.34601176427677
38	500	58	-0.13093246680219
38	502	59	0.24837529144715
38	537	60	-0.38237803687807
38	539	61	-0.25080236603972
38	586	62	0.30458441693336
38	588	63	0.27769069415517
38	635	64	0.48736178367399
38	637	65	-0.46264252706897
38	684	66	0.018330653524025
38	686	67	-0.20158857081551
38	734	68	0.36660318616778
38	775	69	0.29597727053333
38	820	70	-0.27095198039897
38	856	71	-0.013401729403995
38	901	72	0.22787686521188
38	937	73	-0.0047292795265079
38	977	74	-0.84330332714599
39	243	42	2.8032029650375
39	245	43	4.3821871512513
39	273	44	5.2962969796113
39	275	45	6.8354154828545
39	303	46	8.117140921151
39	305	47	0.973
39	333	48	0.973
39	335	49	0.973
39	366	50	1.5843205510003
39	368	51	5.5255715019875
39	399	52	4.421356206984
39	401	53	5.1295369602653
39	432	54	6.6390813649306
39	434	55	10.548387273351
39	465	56	11.883883945307
39	467	57	0.94119575608954
39	500	58	1.7796125253561
39	502	59	3.3125441822652
39	537	60	0.973
39	539	61	1.2866227320968
39	586	62	3.4720124033079
39	588	63	3.4195671416817
39	635	64	4.3703251637434
39	637	65	0.973
39	684	66	2.3955739315968
39	686	67	1.5053629949143
39	734	68	3.8167577167188
39	775	69	3.5914886189863
39	820	70	1.2555787798366
39	856	71	2.290729261775
39	901	72	3.3025771355599
39	937	73	2.3535816352641
39	977	74	0.973
40	467	57	597.40565482234
40	500	58	596.2597957057
40	502	59	592.10262232973
40	537	60	586.29861861343
40	539	61	578.74704648975
40	586	62	568.74001362648
40	588	63	556.58087871871
40	635	64	545.14569343772
40	637	65	539.69310089695
40	684	66	539.27087794247
40	686	67	539.58439285174
40	734	68	539.96939844648
40	775	69	540.42804087095
40	820	70	540.9285986218
40	856	71	541.72259159347
40	901	72	542.74465692763
40	937	73	543.8440589353
40	977	74	545.1621773162
41	467	57	1070.0439898477
41	500	58	1066.4813805974
41	502	59	1065.5051601133
41	537	60	1064.1422178433
41	539	61	1062.3688976741
41	586	62	1060.0189667035
41	588	63	1057.1636620307
41	635	64	1054.4758005918
41	637	65	1050.3527680903
41	684	66	1044.0215289271
41	686	67	1035.1377900525
41	734	68	1024.2282955829
41	775	69	1011.2322325083
41	820	70	996.8252145738
41	856	71	979.97653991466
41	901	72	960.6795969818
41	937	73	939.92251121309
41	977	74	916.75756554801
42	500	58	595.94565482233
42	502	59	595.1967921552
42	537	60	592.0960986288
42	539	61	586.45498115192
42	586	62	583.44248620002
42	588	63	577.77602048162
42	635	64	570.37903103609
42	637	65	561.23683098126
42	684	66	551.71468024706
42	686	67	543.88172949929
42	734	68	539.21918679712
42	775	69	539.44912549875
42	820	70	539.83856483501
42	856	71	540.2988466478
42	901	72	540.83013134146
42	937	73	541.57696904474
42	977	74	542.55500427859
43	500	58	1076.2739898477
43	502	59	1072.8066391253
43	537	60	1068.796897592
43	539	61	1067.4719292401
43	586	62	1063.4715181358
43	588	63	1062.1408736313
43	635	64	1060.4038537949
43	637	65	1058.2570097362
43	684	66	1056.0197737798
43	686	67	1054.1575257043
43	734	68	1047.4702415655
43	775	69	1038.9707173128
43	820	70	1027.9355886205
43	856	71	1014.8930719409
43	901	72	999.54754526547
43	937	73	982.72594342021
43	977	74	964.26030383409
44	500	58	1.9359241187572
44	502	59	4.269880891894
44	537	60	5.9613593957853
44	539	61	7.7563071343349
44	586	62	10.278339280828
44	588	63	12.488788200368
44	635	64	11.753502927605
44	637	65	7.2535029276046
44	684	66	6.4024424135457
44	686	67	8.8886375450767
44	734	68	10.915510182013
44	775	69	13.003229362448
44	820	70	14.416690376634
44	856	71	16.869155369304
44	901	72	19.323149736296
44	937	73	20.785275563784
44	977	74	23.200809261715
45	502	59	2.3339567731367
45	537	60	1.6914785038913
45	539	61	1.7949477385497
45	586	62	2.5220321464934
45	588	63	2.2104489195393
45	635	64	-0.73528527276312
45	637	65	-4.5
45	684	66	-0.85106051405892
45	686	67	2.486195131531
45	734	68	2.0268726369366
45	775	69	2.0877191804349
45	820	70	1.413461014186
45	856	71	2.4524649926694
45	901	72	2.4539943669923
45	937	73	1.4621258274885
45	977	74	2.4155336979311
46	502	59	3.7249084625081
46	537	60	3.847272995111
46	539	61	4.8825122463857
46	586	62	7.9534112666308
46	588	63	8.545406218557
46	635	64	0.973
46	637	65	0.973
46	684	66	0.973
46	686	67	6.929494872714
46	734	68	7.0886770508114
46	775	69	8.4828324868637
46	820	70	6.9932238423211
46	856	71	12.337640405508
46	901	72	14.136613452484
46	937	73	10.266382752951
46	977	74	16.889081469979
47	502	59	1.5192738080164
47	537	60	3.9353703832952
47	539	61	5.7952656599227
47	586	62	3.8508212154783
47	588	63	5.8200925261998
47	635	64	7.5975334763811
47	637	65	9.3900594932312
47	684	66	9.7835356753957
47	686	67	8.0567207569064
47	734	68	8.8986799830844
47	775	69	8.5062910451827
47	820	70	11.041213681972
47	856	71	13.049708582931
47	901	72	15.35142558427
47	937	73	16.84414083688
47	977	74	18.490717412629
48	537	60	2.4160965752788
48	539	61	1.8598952766275
48	586	62	-1.9444444444444
48	588	63	1.9692713107215
48	635	64	1.7774409501813
48	637	65	1.79252601685
48	684	66	0.39347618216449
48	686	67	-1.7268149184893
48	734	68	0.84195922617801
48	775	69	-0.39238893790171
48	820	70	2.5349226367893
48	856	71	2.0084949009586
48	901	72	2.3017170013394
48	937	73	1.4927152526099
48	977	74	1.6465765757486
49	537	60	3.5969571535332
49	539	61	4.005183263693
49	586	62	0.973
49	588	63	4.1711566995685
49	635	64	4.7715219325111
49	637	65	5.6959558777436
49	684	66	2.5962173138254
49	686	67	0.973
49	734	68	3.4100180930616
49	775	69	0.973
49	820	70	8.5122296847503
49	856	71	8.2614872393968
49	901	72	10.700409878843
49	937	73	8.4236346737574
49	977	74	9.9235987228787
50	734	68	597.40565482234
50	775	69	596.74767370224
50	820	70	593.48908491111
50	856	71	588.56362150883
50	901	72	581.27712340006
50	937	73	572.09027626355
50	977	74	561.0220868321
51	734	68	1070.0439898477
51	775	69	1066.5959479851
51	820	70	1065.8307402732
51	856	71	1064.6741038204
51	901	72	1062.9630304376
51	937	73	1060.8057019964
51	977	74	1058.2065818087
52	775	69	1.4348189815413
52	820	70	3.3469342640834
52	856	71	5.0590004705358
52	901	72	7.4840465455083
52	937	73	9.4359170275973
52	977	74	11.368265474425
53	820	70	1.9121152825421
53	856	71	1.7120662064524
53	901	72	2.4250460749725
53	937	73	1.951870482089
53	977	74	1.9323484468274
54	820	70	2.8172531229111
54	856	71	3.4533910074276
54	901	72	5.8837015823334
54	937	73	6.0814627389009
54	977	74	7.0882841904331
19	1009	75	0.973
18	1009	75	-1.2089775513625
17	1009	75	26.968025855282
16	1009	75	737.4050262036
15	1009	75	1573.1566978155
vector 55 RSUExampleScenario.node[11].veinsmobility posx ETV
vector 56 RSUExampleScenario.node[11].veinsmobility posy ETV
vector 57 RSUExampleScenario.node[12].veinsmobility posx ETV
vector 58 RSUExampleScenario.node[12].veinsmobility posy ETV
vector 59 RSUExampleScenario.node[11].veinsmobility speed ETV
vector 60 RSUExampleScenario.node[12].veinsmobility speed ETV
vector 61 RSUExampleScenario.node[11].veinsmobility acceleration ETV
vector 62 RSUExampleScenario.node[11].veinsmobility co2emission ETV
vector 63 RSUExampleScenario.node[12].veinsmobility acceleration ETV
vector 64 RSUExampleScenario.node[12].veinsmobility co2emission ETV
vector 65 RSUExampleScenario.node[13].veinsmobility posx ETV
vector 66 RSUExampleScenario.node[13].veinsmobility posy ETV
vector 67 RSUExampleScenario.node[14].veinsmobility posx ETV
vector 68 RSUExampleScenario.node[14].veinsmobility posy ETV
vector 69 RSUExampleScenario.node[13].veinsmobility speed ETV
20	1009	75	808.36846342736
20	1044	76	832.11422085107
20	1077	77	855.39561232178
20	1117	78	878.21225393048
20	1154	79	900.93648507439
20	1194	80	923.77835473981
20	1231	81	946.95706424711
20	1271	82	970.03741519537
20	1308	83	992.72317172667
20	1348	84	1015.8424114063
20	1385	85	1038.4915670758
20	1430	86	1061.9694007081
21	1009	75	551.70177768769
21	1044	76	557.6242391175
21	1077	77	563.21144190757
21	1117	78	568.35437133221
21	1154	79	573.54347619191
21	1194	80	579.22247587859
21	1231	81	584.9852214838
21	1271	82	590.64609968422
21	1308	83	596.25725080969
21	1348	84	601.98034959382
21	1385	85	607.58708048421
21	1430	86	613.39894813114
22	1009	75	23.786951300945
22	1044	76	24.449501210894
22	1077	77	23.950940488768
22	1117	78	23.352144284966
22	1154	79	23.352144284966
22	1194	80	23.537861804339
22	1231	81	23.884965161654
22	1271	82	23.762464474003
22	1308	83	23.369882432419
22	1348	84	23.818677020679
22	1385	85	23.334371335689
22	1430	86	24.188119686652
23	1009	75	780.31994211973
23	1044	76	809.91796555246
23	1077	77	840.06987783704
23	1117	78	870.97653858779
23	1154	79	902.1797123544
23	1194	80	932.412779419
23	1231	81	963.04200570829
23	1271	82	993.13925481651
23	1308	83	1023.4876238008
23	1348	84	1053.7740051626
23	1385	85	1083.8637605652
23	1430	86	1115.0052675195
24	1009	75	540.5685137841
24	1044	76	548.80006757306
24	1077	77	556.24299243772
24	1117	78	563.58865225055
24	1154	79	570.56113107806
24	1194	80	581.36918697386
24	1231	81	588.91709945696
24	1271	82	596.36025093679
24	1308	83	603.87289910524
24	1348	84	611.37020242271
24	1385	85	618.82090996461
24	1430	86	626.52615086957
25	1009	75	-0.47273117897566
25	1044	76	0.6625499099493
25	1077	77	-0.49856072212569
25	1117	78	-0.59879620380234
25	1154	79	0
25	1194	80	0.1857175193727
25	1231	81	0.34710335731506
25	1271	82	-0.12250068765134
25	1308	83	-0.39258204158396
25	1348	84	0.44879458826035
25	1385	85	-0.48430568499025
25	1430	86	0.853748350963
26	1009	75	0.79081517910671
26	1044	76	7.5435586334931
26	1077	77	0.65684303683287
26	1117	78	0.973
26	1154	79	3.4129019490305
26	1194	80	4.5036578387624
26	1231	81	5.5190040749317
26	1271	82	2.7942717123766
26	1308	83	1.205362746691
26	1348	84	6.0835481283181
26	1385	85	0.68582716456467
26	1430	86	8.5609329243617
27	1009	75	28.618615618749
27	1044	76	30.749242355354
27	1077	77	31.094426774449
27	1117	78	31.788382292963
27	1154	79	31.940700726519
27	1194	80	31.94773102054
27	1231	81	31.510189610655
27	1271	82	31.038277767534
27	1308	83	31.266512608557
27	1348	84	31.202649644977
27	1385	85	31.003658504836
27	1430	86	32.082037289982
28	1009	75	1.3208659525029
28	1044	76	2.1306267366046
28	1077	77	0.34518441909482
28	1117	78	0.69395551851485
28	1154	79	0.15231843355577
28	1194	80	0.0070302940206588
28	1231	81	-0.43754140988458
28	1271	82	-0.47191184312105
28	1308	83	0.22823484102264
28	1348	84	-0.063862963579595
28	1385	85	-0.19899114014115
28	1430	86	1.0783787851455
29	1009	75	13.765990967913
29	1044	76	21.068310612593
29	1077	77	7.974007671861
29	1117	78	10.927277740727
29	1154	79	6.833596248785
29	1194	80	5.7175496630649
29	1231	81	2.1975671264558
29	1271	82	1.839546040388
29	1308	83	7.1617495264304
29	1348	84	4.9413607783019
29	1385	85	3.8718119203462
29	1430	86	14.045827350591
30	1009	75	1262.2898421848
30	1044	76	1266.6549601117
30	1077	77	1275.5076530958
30	1117	78	1285.9812581402
30	1154	79	1297.9019330009
30	1194	80	1311.757717756
30	1231	81	1327.6664407756
30	1271	82	1345.4651302364
30	1308	83	1365.5845852863
30	1348	84	1387.8228602718
30	1385	85	1412.1387314871
30	1430	86	1437.4494050612
31	1009	75	660.5178503841
31	1044	76	664.94701657773
31	1077	77	667.00772894733
31	1117	78	669.44388574231
31	1154	79	672.21663046005
31	1194	80	675.43948104854
31	1231	81	679.17197787465
31	1271	82	683.39385443745
31	1308	83	688.14076803352
31	1348	84	693.45313637663
31	1385	85	698.94973304239
31	1430	86	704.88102100713
32	1009	75	6.0444513289465
32	1044	76	6.566182711066
32	1077	77	9.0901164785934
32	1117	78	10.754076801541
32	1154	79	12.239897574389
32	1194	80	14.226827608163
32	1231	81	16.34211737341
32	1271	82	18.296010439654
32	1308	83	20.663445739352
32	1348	84	22.862243917512
32	1385	85	24.928953688822
32	1430	86	25.99820217874
33	1009	75	-1.8920030511622
33	1044	76	0.52173138211947
33	1077	77	2.5239337675273
33	1117	78	1.6639603229472
33	1154	79	1.4858207728481
33	1194	80	1.9869300337741
33	1231	81	2.1152897652471
33	1271	82	1.9538930662442
33	1308	83	2.3674352996983
33	1348	84	2.1987981781596
33	1385	85	2.06670977131
33	1430	86	1.069248489918
34	1009	75	0.973
34	1044	76	2.2785188989664
34	1077	77	7.1471220018575
34	1117	78	6.0562093374259
34	1154	79	6.2527466588557
34	1194	80	8.8748298778554
34	1231	81	10.632486107305
34	1271	82	11.173748070281
34	1308	83	14.711416755508
34	1348	84	15.431713355235
34	1385	85	16.160261539276
34	1430	86	10.686915438851
35	1009	75	556.61846306631
35	1044	76	557.36955244613
35	1077	77	558.33662992686
35	1117	78	559.25811593104
35	1154	79	560.18462647083
35	1194	80	561.2964263049
35	1231	81	565.91089009535
35	1271	82	567.40682114893
35	1308	83	568.84829255371
35	1348	84	570.03411940427
35	1385	85	570.84161697832
35	1430	86	571.25069197551
36	1009	75	663.49988806789
36	1044	76	647.76508457659
36	1077	77	630.88518673122
36	1117	78	614.85989046908
36	1154	79	598.99405179044
36	1194	80	582.57649751233
36	1231	81	566.79007111689
36	1271	82	549.96691134944
36	1308	83	533.75620184871
36	1348	84	520.42045718599
36	1385	85	511.3393831168
36	1430	86	506.73894781056
37	1009	75	16.76431535191
37	1044	76	15.722637942267
37	1077	77	16.902833667347
37	1117	78	16.047265439942
37	1154	79	15.888408674552
37	1194	80	16.45214517654
37	1231	81	16.084064369459
37	1271	82	16.895854131222
37	1308	83	16.280757412637
37	1348	84	13.393369596867
37	1385	85	9.1203141947629
37	1430	86	4.6203141947629
38	1009	75	0.69422125990968
38	1044	76	-1.0416774096433
38	1077	77	1.1801957250806
38	1117	78	-0.85556822740473
38	1154	79	-0.15885676539037
38	1194	80	0.56373650198802
38	1231	81	-0.36808080708142
38	1271	82	0.81178976176307
38	1308	83	-0.61509671858512
38	1348	84	-2.8873878157695
38	1385	85	-4.2730554021041
38	1430	86	-4.5
39	1009	75	5.1587446657514
39	1044	76	0.973
39	1077	77	7.1791373770403
39	1117	78	0.973
39	1154	79	1.6386992768802
39	1194	80	4.550225373586
39	1231	81	0.973
39	1271	82	5.6761505526389
39	1308	83	0.973
39	1348	84	0.973
39	1385	85	0.973
39	1430	86	0.973
40	1009	75	547.19981303455
40	1044	76	549.41248860536
40	1077	77	551.52058724982
40	1117	78	550.75809770211
40	1154	79	551.50367679959
40	1194	80	552.41310619138
40	1231	81	553.56390047939
40	1271	82	555.0282495172
40	1308	83	555.71367126829
40	1348	84	556.04531033566
40	1385	85	556.45362619606
40	1430	86	557.47891681842
41	1009	75	894.45469370309
41	1044	76	871.33577741871
41	1077	77	849.30952254285
41	1117	78	827.42084721846
41	1154	79	804.88135152027
41	1194	80	782.70241023071
41	1231	81	759.58823037898
41	1271	82	737.35988010069
41	1308	83	714.02228600248
41	1348	84	691.30531098503
41	1385	85	668.03140348292
41	1430	86	645.85617916944
42	1009	75	543.6399661509
42	1044	76	544.83980841208
42	1077	77	546.96193734887
42	1117	78	549.35270851723
42	1154	79	551.66269594746
42	1194	80	550.63805464549
42	1231	81	551.65306191471
42	1271	82	552.67639226458
42	1308	83	553.7237852907
42	1348	84	555.13477474536
42	1385	85	555.76422481503
42	1430	86	556.12940370343
43	1009	75	943.77585275772
43	1044	76	921.12242066421
43	1077	77	896.88512748475
43	1117	78	871.96038360641
43	1154	79	847.82471422868
43	1194	80	824.35621859654
43	1231	81	801.23818391676
43	1271	82	776.85548579358
43	1308	83	756.47753030004
43	1348	84	734.31028577811
43	1385	85	710.61125195409
43	1430	86	685.43442051863
44	1009	75	22.39999903228
44	1044	76	23.22521920327
44	1077	77	22.127533636353
44	1117	78	22.181962166581
44	1154	79	22.604389093554
44	1194	80	22.163463063858
44	1231	81	23.107404026127
44	1271	82	22.381284501724
44	1308	83	23.393761361129
44	1348	84	22.707168242097
44	1385	85	23.262668757018
44	1430	86	22.150667349127
45	1009	75	-0.80081022943523
45	1044	76	0.82522017098963
45	1077	77	-1.0976855669171
45	1117	78	0.054428530228321
45	1154	79	0.42242692697328
45	1194	80	-0.44092602969613
45	1231	81	0.94394096226897
45	1271	82	-0.72611952440348
45	1308	83	1.0124768594047
45	1348	84	-0.68659311903175
45	1385	85	0.55550051492173
45	1430	86	-1.1120014078915
46	1009	75	0.973
46	1044	76	8.0066876739158
46	1077	77	0.973
46	1117	78	3.4792848517785
46	1154	79	5.5686401302515
46	1194	80	0.82974515215217
46	1231	81	8.6211927162152
46	1271	82	0.973
46	1308	83	9.1294500445304
46	1348	84	0.973
46	1385	85	6.5094193564784
46	1430	86	0.973
47	1009	75	20.512270611552
47	1044	76	22.684197279699
47	1077	77	24.332622993765
47	1117	78	25.040303731935
47	1154	79	24.246647421527
47	1194	80	23.756522868661
47	1231	81	23.178817903095
47	1271	82	24.366766569849
47	1308	83	20.373494518052
47	1348	84	22.325814376182
47	1385	85	23.74758571218
47	1430	86	25.169685373099
48	1009	75	2.0215531989234
48	1044	76	2.1719266681466
48	1077	77	1.6484257140663
48	1117	78	0.70768073817009
48	1154	79	-0.79365631040773
48	1194	80	-0.49012455286578
48	1231	81	-0.57770496556677
48	1271	82	1.1879486667544
48	1308	83	-3.9932720517966
48	1348	84	1.9523198581301
48	1385	85	1.4217713359977
48	1430	86	1.4220996609192
49	1009	75	12.8902592573
49	1044	76	15.156281492251
49	1077	77	13.281323162943
49	1117	78	8.0390068296552
49	1154	79	0.973
49	1194	80	0.68846594532784
49	1231	81	0.15142511874842
49	1271	82	10.59804368921
49	1308	83	0.973
49	1348	84	13.719499363769
49	1385	85	11.629794824586
49	1430	86	12.423502885164
50	1009	75	549.48833759415
50	1044	76	541.82679892954
50	1077	77	539.18093529318
50	1117	78	539.53162513711
50	1154	79	539.97012741316
50	1194	80	540.46398857087
50	1231	81	541.05818477535
50	1271	82	541.94012597709
50	1308	83	542.96613323683
50	1348	84	544.1065102174
50	1385	85	545.51385439198
50	1430	86	547.81585818484
51	1009	75	1055.4962109984
51	1044	76	1053.3168722894
51	1077	77	1046.570138216
51	1117	78	1036.6330127164
51	1154	79	1024.2076396287
51	1194	80	1010.1990857307
51	1231	81	993.75924935362
51	1271	82	975.86941638131
51	1308	83	956.49804854557
51	1348	84	934.96734127999
51	1385	85	912.05719344914
51	1430	86	888.01800843166
52	1009	75	11.851755394641
52	1044	76	7.9895163747191
52	1077	77	7.57977811491
52	1117	78	9.9426050284354
52	1154	79	12.432224685693
52	1194	80	14.016051907226
52	1231	81	16.45279099645
52	1271	82	17.912266198493
52	1308	83	19.397675714194
52	1348	84	21.559947700979
52	1385	85	22.950626329234
52	1430	86	24.154564258232
53	1009	75	0.4834899202164
53	1044	76	-3.862239019922
53	1077	77	-0.40973825980909
53	1117	78	2.3628269135253
53	1154	79	2.4896196572576
53	1194	80	1.5838272215333
53	1231	81	2.4367390892236
53	1271	82	1.4594752020435
53	1308	83	1.4854095157003
53	1348	84	2.1622719867853
53	1385	85	1.3906786282547
53	1430	86	1.2039379289987
54	1009	75	3.2164953011246
54	1044	76	0.973
54	1077	77	0.973
54	1117	78	7.3421584287051
54	1154	79	9.3465531971561
54	1194	80	7.3904550071901
54	1231	81	11.977077661386
54	1271	82	8.805346374463
54	1308	83	9.6640467448333
54	1348	84	14.310900445428
54	1385	85	11.025873009047
54	1430	86	10.58551791191
55	1077	77	583.87165886857
55	1117	78	585.32028836572
55	1154	79	588.29816218872
55	1194	80	593.46266539896
55	1231	81	600.73527091746
55	1271	82	610.46434478894
55	1308	83	621.50649050001
55	1348	84	634.12542548766
55	1385	85	648.67144765475
55	1430	86	665.5461394215
56	1077	77	494.69715014887
56	1117	78	494.98595455491
56	1154	79	495.57963505251
56	1194	80	496.60925048217
56	1231	81	498.05914538025
56	1271	82	499.9987713552
56	1308	83	502.2001764348
56	1348	84	504.7159363521
56	1385	85	507.62495053546
56	1430	86	511.37444390901
57	1077	77	582.62165886857
57	1117	78	584.12869168114
57	1154	79	587.23033093307
57	1194	80	592.87558133307
57	1231	81	599.96132112013
57	1271	82	609.14175953566
57	1308	83	620.63396213381
57	1348	84	634.67417284603
57	1385	85	650.75354775868
57	1430	86	668.17151262259
58	1077	77	500.97642705232
58	1117	78	501.27665709652
58	1154	79	501.89456354283
58	1194	80	503.01920645901
58	1231	81	504.43082268376
58	1271	82	506.25974333383
58	1308	83	508.5492120602
58	1348	84	511.34629321698
58	1385	85	514.61118812522
58	1430	86	518.53380952779
59	1117	78	1.4771120201563
59	1154	79	3.0364238938317
59	1194	80	5.2660461387597
59	1231	81	7.4155973286135
59	1271	82	9.9203640328953
59	1308	83	11.259253101074
59	1348	84	12.867044740194
59	1385	85	14.829677334707
59	1430	86	17.248724384303
60	1117	78	1.5366636442253
60	1154	79	3.1626227618661
60	1194	80	5.7562456370099
60	1231	81	7.225057498645
60	1271	82	9.3609414695296
60	1308	83	11.718158873031
60	1348	84	14.316265166015
60	1385	85	16.493028428825
60	1430	86	17.894566959003
61	1154	79	1.5593118736753
61	1194	80	2.229622244928
61	1231	81	2.1495511898538
61	1271	82	2.5047667042818
61	1308	83	1.3388890681788
61	1348	84	1.6077916391194
61	1385	85	1.9626325945137
61	1430	86	2.419047049596
62	1154	79	2.4001336467644
62	1194	80	4.207176283976
62	1231	81	5.3469894195117
62	1271	82	7.6671633688224
62	1308	83	5.4180515428003
62	1348	84	6.9131929981355
62	1385	85	9.141017049761
62	1430	86	12.471989413913
63	1154	79	1.6259591176407
63	1194	80	2.5936228751438
63	1231	81	1.4688118616352
63	1271	82	2.1358839708846
63	1308	83	2.3572174035013
63	1348	84	2.5981062929844
63	1385	85	2.1767632628093
63	1430	86	1.4015385301784
64	1154	79	2.5047803262157
64	1194	80	5.0033174871056
64	1231	81	4.0509305427597
64	1271	82	6.455873993413
64	1308	83	8.4808909421782
64	1348	84	11.035712469534
64	1385	85	10.972317210456
64	1430	86	8.5468377529211
65	1385	85	584.49238196512
65	1430	86	586.81689870764
66	1385	85	491.55715014887
66	1430	86	492.02050785167
67	1430	86	596.67565482233
68	1430	86	1073.1539898477
69	1430	86	2.3698780839797
vector 70 RSUExampleScenario.node[13].veinsmobility acceleration ETV
vector 71 RSUExampleScenario.node[13].veinsmobility co2emission ETV
vector 72 RSUExampleScenario.node[14].veinsmobility speed ETV
20	1471	87	1084.9564613911
21	1471	87	619.09168889736
22	1471	87	23.68657242288
23	1471	87	1143.6027492407
24	1471	87	633.61418215127
25	1471	87	-0.50154726377223
26	1471	87	0.61723930573093
27	1471	87	29.459561151735
28	1471	87	-2.6224761382463
29	1471	87	0.973
30	1471	87	1462.5785379765
31	1471	87	710.88024183483
32	1471	87	25.832485765075
33	1471	87	-0.16571641366463
34	1471	87	2.9169402983335
35	1471	87	571.88038597328
36	1471	87	502.71711292189
37	1471	87	4.0800853913315
38	1471	87	-0.5402288034314
39	1471	87	0.973
40	1471	87	558.80388641583
41	1471	87	622.7294371056
42	1471	87	556.64865339343
43	1471	87	662.6699285298
44	1471	87	23.158165881917
45	1471	87	1.0074985327898
46	1471	87	8.9974397065319
47	1471	87	22.735523498522
48	1471	87	-2.4341618745771
49	1471	87	0.973
50	1471	87	550.10276047806
51	1471	87	864.1235417666
52	1471	87	24.004335636445
53	1471	87	-0.15022862178739
54	1471	87	2.6766276933994
55	1471	87	684.59027349417
56	1471	87	515.68702219998
[...]
116	9223	147	3.9884796336328
116	9287	148	4.1322493513336
116	9539	149	0.973
116	9600	150	0.973
116	9856	151	0.973
116	9917	152	0.973
116	10176	153	0.973
116	10234	154	4.077005009357
116	10500	155	0.973
116	10558	156	2.2207985400047
116	10922	157	4.4335463947808
116	10977	158	7.6014743036853
116	11159	159	10.155397947998
116	11213	160	7.0620717717608
116	11395	161	8.7041700451702
116	11449	162	10.33290645793
116	11629	163	10.094888063921
116	11683	164	16.581517793897
116	11949	165	16.527920226418
116	12006	166	21.088463014429
116	12110	167	6.3957127838754
116	12206	168	5.2958531438354
116	12305	169	3.6128051607837
116	12396	170	0.1879011604644
116	12482	171	6.3174238399734
116	12568	172	0.973
116	12654	173	0.973
116	12740	174	0.973
116	12826	175	4.7859166560677
116	12912	176	0.973
116	12998	177	0.61504800610324
116	13084	178	2.02445070721
116	13173	179	0.54484770956459
116	13259	180	0.973
116	13343	181	2.4756807925677
116	13421	182	2.1257443287734
116	13505	183	3.2696413298079
116	13583	184	0.973
116	13664	185	0.973
116	13739	186	0.973
116	13820	187	0.973
116	13887	188	0.973
116	13957	189	0.973
116	14024	190	0.973
116	14094	191	0.973
116	14158	192	1.1107214446569
116	14225	193	1.111068927624
116	14286	194	1.110248769008
116	14350	195	1.1100231933874
116	14411	196	1.1100109507247
116	14475	197	1.1100098897305
116	14536	198	0.973
116	14600	199	0.973
116	14661	200	0.973
117	4155	118	2.5611609236337
117	4349	119	2.9463801489221
117	4432	120	4.937104491774
117	4626	121	6.6865584550435
117	4711	122	8.2555417891368
117	4911	123	10.198734057114
117	4996	124	10.539836339232
117	5243	125	9.2039327199908
117	5331	126	4.7039327199908
117	5550	127	4.8039418083264
117	5638	128	5.2537839136899
117	5868	129	6.6198632137498
117	5956	130	8.7061742643241
117	6185	131	10.198363832582
117	6346	132	12.398562792141
117	6585	133	14.409438802732
117	6742	134	16.339862098772
117	6971	135	15.801194558775
117	7128	136	15.396376449003
117	7354	137	15.412612245691
117	7514	138	15.45436109078
117	7745	139	15.829692842759
117	7905	140	15.771432755067
117	8138	141	16.304321399046
117	8355	142	16.139964063855
117	8583	143	15.989038377366
117	8653	144	15.879318524402
117	8884	145	15.877887509222
117	8954	146	15.921142033947
117	9223	147	16.43540317539
117	9287	148	15.887859053391
117	9539	149	16.03278151906
117	9600	150	15.738168424432
117	9856	151	16.631059125758
117	9917	152	16.435526888509
117	10176	153	16.38139492126
117	10234	154	15.526958246081
117	10500	155	16.601266637275
117	10558	156	16.404303196881
117	10922	157	15.66013108759
117	10977	158	15.94373951549
117	11159	159	16.015275438659
117	11213	160	15.494714794605
117	11395	161	15.503016995307
117	11449	162	16.579339916649
117	11629	163	12.079339916649
117	11683	164	7.5793399166488
117	11949	165	4.0878044490597
117	12006	166	4.4053370354126
117	12110	167	4.6900737735337
117	12206	168	7.0547999309969
117	12305	169	9.4122638533019
117	12396	170	11.233671427927
117	12482	171	13.046074068559
117	12568	172	15.106231329603
117	12654	173	17.035437866802
117	12740	174	18.778627507937
117	12826	175	20.724988365937
117	12912	176	19.597189320084
117	12998	177	20.027906175303
117	13084	178	20.464391558543
117	13173	179	20.285296411878
117	13259	180	20.305995981577
117	13343	181	19.946907845717
117	13421	182	20.186535914471
117	13505	183	20.554053531234
117	13583	184	20.022472017696
117	13664	185	20.005434196019
117	13739	186	20.555993768918
117	13820	187	20.316592915259
117	13887	188	20.620655307239
117	13957	189	19.524936487312
117	14024	190	20.624088923955
117	14094	191	19.860893649953
117	14158	192	19.93112338583
117	14225	193	19.798520319742
117	14286	194	20.624296924631
117	14350	195	20.064157356318
117	14411	196	19.852802398936
117	14475	197	20.482707450069
117	14536	198	20.165298665823
117	14600	199	17.271632587311
117	14661	200	14.115840475052
118	4349	119	0.38521922528837
118	4432	120	1.9907243428519
118	4626	121	1.7494539632695
118	4711	122	1.5689833340934
118	4911	123	1.9431922679767
118	4996	124	0.34110228211881
118	5243	125	-1.3359036192416
118	5331	126	-4.5
118	5550	127	0.10000908833558
118	5638	128	0.4498421053635
118	5868	129	1.3660793000599
118	5956	130	2.0863110505743
118	6185	131	1.4921895682579
118	6346	132	2.2001989595592
118	6585	133	2.0108760105912
118	6742	134	1.9304232960392
118	6971	135	-0.5386675399961
118	7128	136	-0.40481810977217
118	7354	137	0.016235796688125
118	7514	138	0.041748845088295
118	7745	139	0.37533175197896
118	7905	140	-0.058260087692178
118	8138	141	0.5328886439791
118	8355	142	-0.16435733519029
118	8583	143	-0.15092568648979
118	8653	144	-0.10971985296346
118	8884	145	-0.0014310151804242
118	8954	146	0.043254524725489
118	9223	147	0.5142611414427
118	9287	148	-0.54754412199836
118	9539	149	0.14492246566806
118	9600	150	-0.29461309462786
118	9856	151	0.89289070132654
118	9917	152	-0.19553223724943
118	10176	153	-0.054131967248395
118	10234	154	-0.85443667517975
118	10500	155	1.0743083911948
118	10558	156	-0.19696344039403
118	10922	157	-0.74417210929096
118	10977	158	0.28360842789989
118	11159	159	0.071535923168994
118	11213	160	-0.52056064405478
118	11395	161	0.008302200702019
118	11449	162	1.0763229213422
118	11629	163	-4.5
118	11683	164	-4.5
118	11949	165	-3.4915354675891
118	12006	166	0.3175325863529
118	12110	167	0.28473673812114
118	12206	168	2.3647261574632
118	12305	169	2.357463922305
118	12396	170	1.8214075746248
118	12482	171	1.8124026406324
118	12568	172	2.0601572610438
118	12654	173	1.9292065371992
118	12740	174	1.7431896411348
118	12826	175	1.9463608580005
118	12912	176	-1.1277990458533
118	12998	177	0.43071685521863
118	13084	178	0.43648538324051
118	13173	179	-0.17909514666535
118	13259	180	0.020699569699353
118	13343	181	-0.35908813585993
118	13421	182	0.23962806875352
118	13505	183	0.36751761676278
118	13583	184	-0.53158151353709
118	13664	185	-0.017037821677512
118	13739	186	0.55055957289878
118	13820	187	-0.23940085365902
118	13887	188	0.30406239198055
118	13957	189	-1.0957188199274
118	14024	190	1.0991524366429
118	14094	191	-0.76319527400192
118	14158	192	0.070229735877366
118	14225	193	-0.13260306608863
118	14286	194	0.82577660488896
118	14350	195	-0.56013956831302
118	14411	196	-0.21135495738126
118	14475	197	0.62990505113266
118	14536	198	-0.31740878424607
118	14600	199	-2.8936660785122
118	14661	200	-3.1557921122585
119	4349	119	1.5280317931393
119	4432	120	3.7279307698909
119	4626	121	4.2793529542154
119	4711	122	4.6818507262401
119	4911	123	6.4761460208933
119	4996	124	2.59303769878
119	5243	125	0.973
119	5331	126	0.973
119	5550	127	1.4677692275522
119	5638	128	1.946411918439
119	5868	129	3.6355664758873
119	5956	130	5.9684200281365
119	6185	131	5.3674671111892
119	6346	132	8.4584897170563
119	6585	133	9.0646143115576
119	6742	134	9.903073790584
119	6971	135	0.973
119	7128	136	0.973
119	7354	137	2.2520329859546
119	7514	138	2.3519896022159
119	7745	139	3.6719277617781
119	7905	140	2.0117705465565
119	8138	141	4.3908097420512
119	8355	142	1.6376870277201
119	8583	143	1.6773472034485
119	8653	144	1.8260160141143
119	8884	145	2.2402597444533
119	8954	146	2.4168199837607
119	9223	147	4.3499200185482
119	9287	148	0.973
119	9539	149	2.8241017563378
119	9600	150	1.1118817173294
119	9856	151	5.9160090396748
119	9917	152	1.5384859936831
119	10176	153	2.0926228631532
119	10234	154	0.973
119	10500	155	6.6317162742448
119	10558	156	1.5304599246489
119	10922	157	0.973
119	10977	158	3.3432811086882
119	11159	159	2.5381514315853
119	11213	160	0.973
119	11395	161	2.2330927657503
119	11449	162	6.631358278243
119	11629	163	0.973
119	11683	164	0.973
119	11949	165	0.973
119	12006	166	1.6675313040837
119	12110	167	1.6676197218821
119	12206	168	5.5032829655666
119	12305	169	6.9886431978284
119	12396	170	6.713995771007
119	12482	171	7.6428467199384
119	12568	172	9.6573866071073
119	12654	173	10.308926809182
119	12740	174	10.516682122759
119	12826	175	12.653653101237
119	12912	176	0.973
119	12998	177	4.8972270620265
119	13084	178	5.04162812806
119	13173	179	1.9841209143206
119	13259	180	2.9643334142878
119	13343	181	1.0791897648483
119	13421	182	4.0094811781763
119	13505	183	4.7242035912128
119	13583	184	0.973
119	13664	185	2.7325511413212
119	13739	186	5.6314850698904
119	13820	187	1.6925796317618
119	13887	188	4.4257929539849
119	13957	189	0.973
119	14024	190	8.3785347701357
119	14094	191	0.973
119	14158	192	3.1402409682366
119	14225	193	2.1492929219409
119	14286	194	7.0198219995448
119	14350	195	0.973
119	14411	196	1.779299331412
119	14475	197	6.0013498715733
119	14536	198	1.2977260923283
119	14600	199	0.973
119	14661	200	0.973
120	4626	121	597.40565482234
120	4711	122	596.19145581591
120	4911	123	592.5461493379
120	4996	124	587.14537496055
120	5243	125	580.21772526566
120	5331	126	572.01281179876
120	5550	127	562.01063052962
120	5638	128	551.12278344817
120	5868	129	544.20821183072
120	5956	130	539.71290994893
120	6185	131	539.25487693192
120	6346	132	539.55380266538
120	6585	133	539.93429598503
120	6742	134	540.39829619221
120	6971	135	540.92328927425
120	7128	136	541.7338557729
120	7354	137	542.71847654107
120	7514	138	543.64960987136
120	7745	139	544.57798638071
120	7905	140	545.69310954746
120	8138	141	547.39694086862
120	8355	142	548.98515478741
120	8583	143	550.53438406086
120	8653	144	552.09918370645
120	8884	145	550.74615714181
120	8954	146	551.23903902323
120	9223	147	551.87600189176
120	9287	148	552.5674910399
120	9539	149	553.38731499975
120	9600	150	554.42338348618
120	9856	151	555.24901329417
120	9917	152	555.71378939649
120	10176	153	555.94902697652
120	10234	154	556.19106675188
120	10500	155	556.5299897971
120	10558	156	557.30026905107
120	10922	157	558.24733216218
120	10977	158	559.10547610404
120	11159	159	560.11765588338
120	11213	160	561.46630219536
120	11395	161	563.28518553164
120	11449	162	565.01413509345
120	11629	163	566.36743980693
120	11683	164	567.33064553845
120	11949	165	567.93594830402
120	12006	166	569.1095446247
120	12110	167	574.33501680728
120	12206	168	581.5019251558
120	12305	169	590.95848302189
120	12396	170	601.80736319636
120	12482	171	614.28132982186
120	12568	172	629.17862673123
120	12654	173	645.40804156686
120	12740	174	663.66487402625
120	12826	175	683.62918483105
120	12912	176	704.93471018642
120	12998	177	728.66800216842
120	13084	178	753.78604128443
120	13173	179	778.64713747221
120	13259	180	802.77901389772
120	13343	181	827.3637883926
120	13421	182	851.68297326645
120	13505	183	876.07068861471
120	13583	184	900.43273169594
120	13664	185	925.74407720023
120	13739	186	950.16696232931
120	13820	187	975.01852413366
120	13887	188	999.41946681129
120	13957	189	1024.7801343477
120	14024	190	1050.1000584316
120	14094	191	1074.9567494863
120	14158	192	1099.9475785282
120	14225	193	1124.41876783
120	14286	194	1146.0085609327
120	14350	195	1163.2277386231
120	14411	196	1176.634755253
120	14475	197	1185.9829703973
120	14536	198	1190.9628433575
120	14600	199	1191.5745367501
120	14661	200	1191.7004623974
121	4626	121	1070.0439898477
121	4711	122	1066.4653324815
121	4911	123	1065.6093126495
121	4996	124	1064.3410598969
121	5243	125	1062.71425415
121	5331	126	1060.7875111753
121	5550	127	1058.4387194945
121	5638	128	1055.8805790633
121	5868	129	1054.2563900029
121	5956	130	1050.4009401031
121	6185	131	1044.474932562
121	6346	132	1036.0045916615
121	6585	133	1025.2229567366
121	6742	134	1012.0750758661
121	6971	135	996.9720024178
121	7128	136	979.76386835607
121	7354	137	961.1738916305
121	7514	138	943.59377601852
121	7745	139	926.06571012831
121	7905	140	909.66134228503
121	8138	141	892.39502352216
121	8355	142	875.80073147385
121	8583	143	859.61376653845
121	8653	144	843.26411614901
121	8884	145	827.11601173792
121	8954	146	811.33527280083
121	9223	147	795.80117835396
121	9287	148	778.97425520905
121	9539	149	763.02385669602
121	9600	150	746.76198458802
121	9856	151	731.03987522972
121	9917	152	714.01431545809
121	10176	153	698.02723294138
121	10234	154	681.12947932218
121	10500	155	665.93209866871
121	10558	156	648.97439474495
121	10922	157	632.44383862374
121	10977	158	617.47373970988
121	11159	159	600.14087580495
121	11213	160	580.66493462054
121	11395	161	560.19758118651
121	11449	162	540.74222577956
121	11629	163	525.51389017259
121	11683	164	514.6752224342
121	11949	165	507.86393036814
121	12006	166	500.67000353352
121	12110	167	496.62839992552
121	12206	168	497.48983849425
121	12305	169	499.37376747205
121	12396	170	501.53507394601
121	12482	171	504.02012902914
121	12568	172	506.98795831078
121	12654	173	510.22117121283
121	12740	174	514.23200533632
121	12826	175	518.75850648017
121	12912	176	523.78163927527
121	12998	177	529.58926808163
121	13084	178	536.42282602891
121	13173	179	543.41975724934
121	13259	180	550.21145614683
121	13343	181	556.48523647805
121	13421	182	562.31620365896
121	13505	183	567.91070043014
121	13583	184	573.41823183494
121	13664	185	579.71119844816
121	13739	186	585.78327394054
121	13820	187	591.8762664884
121	13887	188	597.91489867303
121	13957	189	604.19285623366
121	14024	190	610.46072787422
121	14094	191	616.61392756089
121	14158	192	622.80053401065
121	14225	193	628.86280992384
121	14286	194	634.20958537236
121	14350	195	638.47108010835
121	14411	196	641.78912071526
121	14475	197	644.10277223571
121	14536	198	645.33564530693
121	14600	199	645.48708296762
121	14661	200	645.51825852989
122	4711	122	2.0061168105574
122	4911	123	3.744136476377
122	4996	124	5.5471978745423
122	5243	125	7.1154691861011
122	5331	126	8.4273615900893
122	5550	127	10.273356152349
122	5638	128	11.186812151511
122	5868	129	7.1060663365118
122	5956	130	6.2389707763709
122	6185	131	6.0009062856698
122	6346	132	8.4750116151088
122	6585	133	10.78758013293
122	6742	134	13.15513087381
122	6971	135	15.1128983364
122	7128	136	17.229215911569
122	7354	137	18.615223411938
122	7514	138	17.603990825573
122	7745	139	17.551870416091
122	7905	140	16.438539633649
122	8138	141	17.355789658366
122	8355	142	16.670594140496
122	8583	143	16.261394099783
122	8653	144	16.424827596608
122	8884	145	16.413749850197
122	8954	146	15.849980455418
122	9223	147	15.523253522746
122	9287	148	16.815249789315
122	9539	149	15.946906782128
122	9600	150	16.305091417009
122	9856	151	15.841340256139
122	9917	152	17.071452734634
122	10176	153	15.977281958631
122	10234	154	16.897753619202
122	10500	155	15.179199762822
122	10558	156	16.935852181375
122	10922	157	16.553017269725
122	10977	158	14.990467594997
122	11159	159	17.357520821938
122	11213	160	19.519158389061
122	11395	161	20.542248616446
122	11449	162	19.526547434624
122	11629	163	15.284059908451
122	11683	164	10.878329143565
122	11949	165	6.8362162929923
122	12006	166	7.3063549727792
122	12110	167	6.9498783531026
122	12206	168	7.2366887398888
122	12305	169	9.6424898987296
122	12396	170	11.062187634887
122	12482	171	12.71922605316
122	12568	172	15.190203137452
122	12654	173	16.548512770807
122	12740	174	18.730682711828
122	12826	175	20.469104437263
122	12912	176	21.91439646805
122	12998	177	24.441735375266
122	13084	178	26.073831821956
122	13173	179	25.824673572987
122	13259	180	25.067190387963
122	13343	181	25.322358683638
122	13421	182	25.00621726073
122	13505	183	24.998261476496
122	13583	184	25.016282755813
122	13664	185	26.082582612034
122	13739	186	25.167050834793
122	13820	187	25.585196289794
122	13887	188	25.138328168799
122	13957	189	26.127915859247
122	14024	190	26.085939775758
122	14094	191	25.608692337574
122	14158	192	25.749885766163
122	14225	193	25.211685335614
122	14286	194	22.238453197228
122	14350	195	17.738453197228
122	14411	196	13.811329511912
122	14475	197	9.6301527270836
122	14536	198	5.1301527270836
122	14600	199	0.63015272708363
122	14661	200	0.12972575969381
123	4911	123	1.7380196658196
123	4996	124	1.8030613981653
123	5243	125	1.5682713115588
123	5331	126	1.3118924039882
123	5550	127	1.8459945622599
123	5638	128	0.91345599916191
123	5868	129	-4.0807458149993
123	5956	130	-0.86709556014091
123	6185	131	-0.23806449070107
123	6346	132	2.474105329439
123	6585	133	2.3125685178209
123	6742	134	2.36755074088
123	6971	135	1.9577674625907
123	7128	136	2.1163175751688
123	7354	137	1.3860075003692
123	7514	138	-1.011232586365
123	7745	139	-0.052120409482516
123	7905	140	-1.1133307824416
123	8138	141	0.91725002471649
123	8355	142	-0.68519551786958
123	8583	143	-0.40920004071359
123	8653	144	0.16343349682515
123	8884	145	-0.011077746411036
123	8954	146	-0.56376939477902
123	9223	147	-0.32672693267143
123	9287	148	1.2919962665684
123	9539	149	-0.86834300718642
123	9600	150	0.35818463488086
123	9856	151	-0.46375116086978
123	9917	152	1.2301124784948
123	10176	153	-1.0941707760031
123	10234	154	0.92047166057062
123	10500	155	-1.7185538563798
123	10558	156	1.7566524185533
123	10922	157	-0.38283491165046
123	10977	158	-1.5625496747273
123	11159	159	2.3670532269403
123	11213	160	2.1616375671234
123	11395	161	1.0230902273848
123	11449	162	-1.0157011818224
123	11629	163	-4.2424875261728
123	11683	164	-4.4057307648861
123	11949	165	-4.0421128505725
123	12006	166	0.47013867978696
123	12110	167	-0.35647661967669
123	12206	168	0.28681038678624
123	12305	169	2.4058011588408
123	12396	170	1.4196977361571
123	12482	171	1.6570384182734
123	12568	172	2.4709770842921
123	12654	173	1.3583096333547
123	12740	174	2.1821699410211
123	12826	175	1.7384217254352
123	12912	176	1.4452920307871
123	12998	177	2.5273389072157
123	13084	178	1.6320964466903
123	13173	179	-0.24915824896889
123	13259	180	-0.75748318502447
123	13343	181	0.25516829567496
123	13421	182	-0.31614142290782
123	13505	183	-0.0079557842342197
123	13583	184	0.018021279317328
123	13664	185	1.0662998562213
123	13739	186	-0.91553177724127
123	13820	187	0.41814545500092
123	13887	188	-0.44686812099535
123	13957	189	0.98958769044839
123	14024	190	-0.041976083489132
123	14094	191	-0.47724743818399
123	14158	192	0.14119342858903
123	14225	193	-0.53820043054875
123	14286	194	-2.9732321383859
123	14350	195	-4.5
123	14411	196	-3.9271236853162
123	14475	197	-4.1811767848285
123	14536	198	-4.5
123	14600	199	-4.5
123	14661	200	-0.50042696738982
124	4911	123	2.8637451317258
124	4996	124	3.8038325883922
124	5243	125	4.1758459061444
124	5331	126	4.2362718379104
124	5550	127	6.2762091167368
124	5638	128	4.2416767920831
124	5868	129	0.973
124	5956	130	0.973
124	6185	131	0.973
124	6346	132	6.6283730723505
124	6585	133	7.7585940218335
124	6742	134	9.4609636874706
124	6971	135	9.2885152057969
124	7128	136	11.20106260904
124	7354	137	8.8219062198635
124	7514	138	0.973
124	7745	139	2.2357413811374
124	7905	140	0.973
124	8138	141	6.2668205960941
124	8355	142	0.973
124	8583	143	0.973
124	8653	144	2.9585976179274
124	8884	145	2.2664827209131
124	8954	146	0.973
124	9223	147	0.98208027640732
124	9287	148	7.5961710381735
124	9539	149	0.973
124	9600	150	3.7044983829509
124	9856	151	0.973
124	9917	152	7.4540847274587
124	10176	153	0.973
124	10234	154	6.1193557632889
124	10500	155	0.973
124	10558	156	9.5455723230695
124	10922	157	0.973
124	10977	158	0.973
124	11159	159	12.332193739877
124	11213	160	12.907199365548
124	11395	161	7.9667386631184
124	11449	162	0.973
124	11629	163	0.973
124	11683	164	0.973
124	11949	165	0.973
124	12006	166	2.3263244740108
124	12110	167	0.973
124	12206	168	1.9943172426022
124	12305	169	7.2486717974043
124	12396	170	5.5535894244883
124	12482	171	6.9930388254627
124	12568	172	11.212414573584
124	12654	173	7.7441478549994
124	12740	174	12.471152187132
124	12826	175	11.465420854293
124	12912	176	10.772484385472
124	12998	177	18.525119563086
124	13084	178	14.261081126322
124	13173	179	2.3961102875646
124	13259	180	0.973
124	13343	181	5.3887421300973
124	13421	182	1.8555713160809
124	13505	183	3.7111047575514
124	13583	184	3.8716765860895
124	13664	185	10.710052395957
124	13739	186	0.973
124	13820	187	6.4697015181604
124	13887	188	1.08290793469
124	13957	189	10.249407468431
124	14024	190	3.7442990127754
124	14094	191	0.95137745951087
124	14158	192	4.8056247366683
124	14225	193	0.53649462907217
124	14286	194	0.973
124	14350	195	0.973
124	14411	196	0.973
124	14475	197	0.973
124	14536	198	0.973
124	14600	199	0.973
124	14661	200	0.973

